/*---------------------------------------------------------------------------*\
  =========                 |
  \\      /  F ield         | OpenFOAM: The Open Source CFD Toolbox
   \\    /   O peration     | Website:  https://openfoam.org
    \\  /    A nd           | Version:  8
     \\/     M anipulation  |
\*---------------------------------------------------------------------------*/
Build  : 8-1c9b5879390b
Exec   : icoFoam -parallel
Date   : Nov 13 2021
Time   : 21:27:38
Host   : "pop-os"
PID    : 22575
I/O    : uncollated
Case   : /home/naimishbalaji/Desktop/Mini_Project/CFD-For-Ventilation-Analysis/simulations/icofoam_cases/3_branch_shifted_bed_shifted_main/case
nProcs : 2
Slaves : 1("pop-os.22576")
Pstream initialized with:
    floatTransfer      : 0
    nProcsSimpleSum    : 0
    commsType          : nonBlocking
    polling iterations : 0
sigFpe : Enabling floating point exception trapping (FOAM_SIGFPE).
fileModificationChecking : Monitoring run-time modified files using timeStampMaster (fileModificationSkew 10)
allowSystemOperations : Allowing user-supplied system call operations

// * * * * * * * * * * * * * * * * * * * * * * * * * * * * * * * * * * * * * //
Create time

Create mesh for time = 0

Reading transportProperties

Reading field p

Reading field U

Reading/calculating face flux field phi


Starting time loop

Time = 0.1

Courant Number mean: 2.3349776e-06 max: 0.014873155
smoothSolver:  Solving for Ux, Initial residual = 1, Final residual = 9.0486761e-17, No Iterations 1
smoothSolver:  Solving for Uy, Initial residual = 0, Final residual = 0, No Iterations 0
smoothSolver:  Solving for Uz, Initial residual = 1, Final residual = 7.626736e-17, No Iterations 1
DICPCG:  Solving for p, Initial residual = 1, Final residual = 0.048391833, No Iterations 183
DICPCG:  Solving for p, Initial residual = 0.34238829, Final residual = 0.015414498, No Iterations 4
DICPCG:  Solving for p, Initial residual = 0.060165071, Final residual = 0.0024488382, No Iterations 10
time step continuity errors : sum local = 1.4916838e-06, global = -2.5058947e-08, cumulative = -2.5058947e-08
DICPCG:  Solving for p, Initial residual = 0.016094187, Final residual = 0.00073335073, No Iterations 16
DICPCG:  Solving for p, Initial residual = 0.0061116493, Final residual = 0.00029098454, No Iterations 17
DICPCG:  Solving for p, Initial residual = 0.0023918179, Final residual = 9.053177e-07, No Iterations 204
time step continuity errors : sum local = 5.5466227e-10, global = -3.355949e-13, cumulative = -2.5059282e-08
ExecutionTime = 1.72 s  ClockTime = 2 s

Time = 0.2

Courant Number mean: 0.00054547874 max: 0.084523514
smoothSolver:  Solving for Ux, Initial residual = 0.41274835, Final residual = 7.9297836e-06, No Iterations 1
smoothSolver:  Solving for Uy, Initial residual = 0.33287066, Final residual = 5.399166e-06, No Iterations 1
smoothSolver:  Solving for Uz, Initial residual = 0.33111679, Final residual = 4.0750524e-09, No Iterations 2
DICPCG:  Solving for p, Initial residual = 0.081233894, Final residual = 0.0038414355, No Iterations 152
DICPCG:  Solving for p, Initial residual = 0.61090604, Final residual = 0.027953884, No Iterations 4
DICPCG:  Solving for p, Initial residual = 0.30017136, Final residual = 0.014881094, No Iterations 10
time step continuity errors : sum local = 1.8587842e-06, global = -2.571204e-08, cumulative = -5.0771323e-08
DICPCG:  Solving for p, Initial residual = 0.10649733, Final residual = 0.0049116461, No Iterations 43
DICPCG:  Solving for p, Initial residual = 0.062928298, Final residual = 0.0031289236, No Iterations 12
DICPCG:  Solving for p, Initial residual = 0.020878722, Final residual = 9.0591469e-07, No Iterations 218
time step continuity errors : sum local = 8.959981e-11, global = -2.4220475e-13, cumulative = -5.0771565e-08
ExecutionTime = 3.3 s  ClockTime = 4 s

Time = 0.3

Courant Number mean: 0.00055206235 max: 0.08461044
smoothSolver:  Solving for Ux, Initial residual = 0.024652339, Final residual = 7.3478059e-07, No Iterations 1
smoothSolver:  Solving for Uy, Initial residual = 0.042404495, Final residual = 1.142658e-06, No Iterations 1
smoothSolver:  Solving for Uz, Initial residual = 0.038816049, Final residual = 1.290199e-06, No Iterations 1
DICPCG:  Solving for p, Initial residual = 0.42549113, Final residual = 0.017458771, No Iterations 4
DICPCG:  Solving for p, Initial residual = 0.20199382, Final residual = 0.0088075594, No Iterations 6
DICPCG:  Solving for p, Initial residual = 0.061218432, Final residual = 0.00298909, No Iterations 10
time step continuity errors : sum local = 1.2267875e-07, global = -1.1257889e-08, cumulative = -6.2029454e-08
DICPCG:  Solving for p, Initial residual = 0.023897739, Final residual = 0.0011509371, No Iterations 40
DICPCG:  Solving for p, Initial residual = 0.01280358, Final residual = 0.00063279624, No Iterations 100
DICPCG:  Solving for p, Initial residual = 0.0077503505, Final residual = 9.9292644e-07, No Iterations 201
time step continuity errors : sum local = 3.9893559e-11, global = 1.2009158e-13, cumulative = -6.2029334e-08
ExecutionTime = 4.66 s  ClockTime = 5 s

Time = 0.4

Courant Number mean: 0.00055258377 max: 0.08517051
smoothSolver:  Solving for Ux, Initial residual = 0.0088158815, Final residual = 3.1855864e-07, No Iterations 1
smoothSolver:  Solving for Uy, Initial residual = 0.014542212, Final residual = 4.6820651e-07, No Iterations 1
smoothSolver:  Solving for Uz, Initial residual = 0.013468877, Final residual = 5.571619e-07, No Iterations 1
DICPCG:  Solving for p, Initial residual = 0.19499711, Final residual = 0.0083384296, No Iterations 3
DICPCG:  Solving for p, Initial residual = 0.05509615, Final residual = 0.0027153294, No Iterations 11
DICPCG:  Solving for p, Initial residual = 0.016182514, Final residual = 0.00080654805, No Iterations 18
time step continuity errors : sum local = 2.2349651e-08, global = -6.8919497e-09, cumulative = -6.8921284e-08
DICPCG:  Solving for p, Initial residual = 0.0062938025, Final residual = 0.0002985054, No Iterations 115
DICPCG:  Solving for p, Initial residual = 0.0053893916, Final residual = 0.00025284848, No Iterations 5
DICPCG:  Solving for p, Initial residual = 0.0013753924, Final residual = 9.022898e-07, No Iterations 199
time step continuity errors : sum local = 2.4853699e-11, global = -3.9958741e-14, cumulative = -6.8921324e-08
ExecutionTime = 6.15 s  ClockTime = 7 s

Time = 0.5

Courant Number mean: 0.00055268675 max: 0.085612198
smoothSolver:  Solving for Ux, Initial residual = 0.0058399548, Final residual = 2.2709349e-07, No Iterations 1
smoothSolver:  Solving for Uy, Initial residual = 0.0094327745, Final residual = 3.2281909e-07, No Iterations 1
smoothSolver:  Solving for Uz, Initial residual = 0.0087488127, Final residual = 3.7847107e-07, No Iterations 1
DICPCG:  Solving for p, Initial residual = 0.11150054, Final residual = 0.0045775873, No Iterations 3
DICPCG:  Solving for p, Initial residual = 0.025438212, Final residual = 0.0010936471, No Iterations 14
DICPCG:  Solving for p, Initial residual = 0.0070301962, Final residual = 0.00034731346, No Iterations 122
time step continuity errors : sum local = 7.7251649e-09, global = -2.0580222e-11, cumulative = -6.8941904e-08
DICPCG:  Solving for p, Initial residual = 0.0051390963, Final residual = 0.00023368508, No Iterations 5
DICPCG:  Solving for p, Initial residual = 0.0013805587, Final residual = 6.7540704e-05, No Iterations 37
DICPCG:  Solving for p, Initial residual = 0.00082721881, Final residual = 9.2416283e-07, No Iterations 172
time step continuity errors : sum local = 2.0736094e-11, global = 1.2282295e-14, cumulative = -6.8941892e-08
ExecutionTime = 7.9 s  ClockTime = 9 s

Time = 0.6

Courant Number mean: 0.00055276746 max: 0.085928571
smoothSolver:  Solving for Ux, Initial residual = 0.004604538, Final residual = 1.839552e-07, No Iterations 1
smoothSolver:  Solving for Uy, Initial residual = 0.0073893545, Final residual = 2.5988257e-07, No Iterations 1
smoothSolver:  Solving for Uz, Initial residual = 0.0068771108, Final residual = 3.0159137e-07, No Iterations 1
DICPCG:  Solving for p, Initial residual = 0.084442818, Final residual = 0.0040065428, No Iterations 2
DICPCG:  Solving for p, Initial residual = 0.017773412, Final residual = 0.00079958272, No Iterations 14
DICPCG:  Solving for p, Initial residual = 0.0049800285, Final residual = 0.00024548178, No Iterations 119
time step continuity errors : sum local = 4.68157e-09, global = -3.8856706e-12, cumulative = -6.8945777e-08
DICPCG:  Solving for p, Initial residual = 0.0033351778, Final residual = 0.0001537913, No Iterations 5
DICPCG:  Solving for p, Initial residual = 0.00088583359, Final residual = 4.1843701e-05, No Iterations 26
DICPCG:  Solving for p, Initial residual = 0.00050017691, Final residual = 9.4377373e-07, No Iterations 179
time step continuity errors : sum local = 1.8142608e-11, global = 1.7041797e-14, cumulative = -6.894576e-08
ExecutionTime = 9.27 s  ClockTime = 10 s

Time = 0.7

Courant Number mean: 0.00055282474 max: 0.086145482
smoothSolver:  Solving for Ux, Initial residual = 0.0038357299, Final residual = 1.568803e-07, No Iterations 1
smoothSolver:  Solving for Uy, Initial residual = 0.0061329368, Final residual = 2.224249e-07, No Iterations 1
smoothSolver:  Solving for Uz, Initial residual = 0.0057128956, Final residual = 2.5487788e-07, No Iterations 1
DICPCG:  Solving for p, Initial residual = 0.068584657, Final residual = 0.0029966058, No Iterations 2
DICPCG:  Solving for p, Initial residual = 0.013633115, Final residual = 0.0005720857, No Iterations 14
DICPCG:  Solving for p, Initial residual = 0.0036124664, Final residual = 0.00017286415, No Iterations 119
time step continuity errors : sum local = 2.9111228e-09, global = -1.2021894e-12, cumulative = -6.8946963e-08
DICPCG:  Solving for p, Initial residual = 0.0023347987, Final residual = 0.00010478086, No Iterations 5
DICPCG:  Solving for p, Initial residual = 0.00061861539, Final residual = 3.0862186e-05, No Iterations 24
DICPCG:  Solving for p, Initial residual = 0.00034326623, Final residual = 9.7484072e-07, No Iterations 163
time step continuity errors : sum local = 1.6504936e-11, global = -2.8710083e-14, cumulative = -6.8946991e-08
ExecutionTime = 10.71 s  ClockTime = 12 s

Time = 0.8

Courant Number mean: 0.00055287128 max: 0.086302309
smoothSolver:  Solving for Ux, Initial residual = 0.0033046954, Final residual = 1.3716333e-07, No Iterations 1
smoothSolver:  Solving for Uy, Initial residual = 0.0052727812, Final residual = 1.9748922e-07, No Iterations 1
smoothSolver:  Solving for Uz, Initial residual = 0.0049121458, Final residual = 2.217392e-07, No Iterations 1
DICPCG:  Solving for p, Initial residual = 0.058376112, Final residual = 0.002390596, No Iterations 2
DICPCG:  Solving for p, Initial residual = 0.011122045, Final residual = 0.00052860748, No Iterations 11
DICPCG:  Solving for p, Initial residual = 0.0028757127, Final residual = 0.00014294477, No Iterations 22
time step continuity errors : sum local = 2.1622373e-09, global = -7.6670773e-10, cumulative = -6.9713699e-08
DICPCG:  Solving for p, Initial residual = 0.0011819675, Final residual = 5.3694358e-05, No Iterations 111
DICPCG:  Solving for p, Initial residual = 0.0010896972, Final residual = 5.3609903e-05, No Iterations 5
DICPCG:  Solving for p, Initial residual = 0.0002766928, Final residual = 9.6699614e-07, No Iterations 170
time step continuity errors : sum local = 1.4674503e-11, global = -2.8327361e-14, cumulative = -6.9713727e-08
ExecutionTime = 11.89 s  ClockTime = 13 s

Time = 0.9

Courant Number mean: 0.00055290797 max: 0.086412876
smoothSolver:  Solving for Ux, Initial residual = 0.002911299, Final residual = 1.2285977e-07, No Iterations 1
smoothSolver:  Solving for Uy, Initial residual = 0.0046368154, Final residual = 1.786103e-07, No Iterations 1
smoothSolver:  Solving for Uz, Initial residual = 0.0043197803, Final residual = 1.9800848e-07, No Iterations 1
DICPCG:  Solving for p, Initial residual = 0.050788231, Final residual = 0.0019435761, No Iterations 2
DICPCG:  Solving for p, Initial residual = 0.0093551856, Final residual = 0.00046320557, No Iterations 6
DICPCG:  Solving for p, Initial residual = 0.0022558664, Final residual = 0.0001071982, No Iterations 23
time step continuity errors : sum local = 1.4751883e-09, global = -4.2054189e-10, cumulative = -7.0134269e-08
DICPCG:  Solving for p, Initial residual = 0.00096744002, Final residual = 4.6616712e-05, No Iterations 91
DICPCG:  Solving for p, Initial residual = 0.00083443169, Final residual = 3.8065733e-05, No Iterations 5
DICPCG:  Solving for p, Initial residual = 0.0002058086, Final residual = 9.816173e-07, No Iterations 163
time step continuity errors : sum local = 1.3532982e-11, global = -4.7252641e-14, cumulative = -7.0134316e-08
ExecutionTime = 13.06 s  ClockTime = 14 s

Time = 1

Courant Number mean: 0.00055294049 max: 0.086492867
smoothSolver:  Solving for Ux, Initial residual = 0.0026077389, Final residual = 1.1265719e-07, No Iterations 1
smoothSolver:  Solving for Uy, Initial residual = 0.004148471, Final residual = 1.6429517e-07, No Iterations 1
smoothSolver:  Solving for Uz, Initial residual = 0.0038645654, Final residual = 1.804997e-07, No Iterations 1
DICPCG:  Solving for p, Initial residual = 0.045161847, Final residual = 0.001645575, No Iterations 2
DICPCG:  Solving for p, Initial residual = 0.0080722982, Final residual = 0.00033757794, No Iterations 6
DICPCG:  Solving for p, Initial residual = 0.0018943475, Final residual = 9.279776e-05, No Iterations 15
time step continuity errors : sum local = 1.1726477e-09, global = -2.5606671e-10, cumulative = -7.0390383e-08
DICPCG:  Solving for p, Initial residual = 0.0007324403, Final residual = 3.6377189e-05, No Iterations 121
DICPCG:  Solving for p, Initial residual = 0.00058245788, Final residual = 2.4514819e-05, No Iterations 5
DICPCG:  Solving for p, Initial residual = 0.00014392758, Final residual = 9.8778542e-07, No Iterations 168
time step continuity errors : sum local = 1.2494293e-11, global = -4.2403583e-14, cumulative = -7.0390426e-08
ExecutionTime = 14.62 s  ClockTime = 16 s

Time = 1.1

Courant Number mean: 0.00055296869 max: 0.086548737
smoothSolver:  Solving for Ux, Initial residual = 0.0023661173, Final residual = 1.044205e-07, No Iterations 1
smoothSolver:  Solving for Uy, Initial residual = 0.0037611326, Final residual = 1.5295144e-07, No Iterations 1
smoothSolver:  Solving for Uz, Initial residual = 0.003500362, Final residual = 1.6634565e-07, No Iterations 1
DICPCG:  Solving for p, Initial residual = 0.040799321, Final residual = 0.001420211, No Iterations 2
DICPCG:  Solving for p, Initial residual = 0.0071159049, Final residual = 0.00033441688, No Iterations 5
DICPCG:  Solving for p, Initial residual = 0.0016409487, Final residual = 7.9074285e-05, No Iterations 14
time step continuity errors : sum local = 9.2455615e-10, global = -1.2483582e-10, cumulative = -7.0515261e-08
DICPCG:  Solving for p, Initial residual = 0.0006348258, Final residual = 3.1479943e-05, No Iterations 22
DICPCG:  Solving for p, Initial residual = 0.0002840603, Final residual = 1.3711054e-05, No Iterations 131
DICPCG:  Solving for p, Initial residual = 0.00026021732, Final residual = 9.3874954e-07, No Iterations 150
time step continuity errors : sum local = 1.0978217e-11, global = 7.1818691e-14, cumulative = -7.051519e-08
ExecutionTime = 15.95 s  ClockTime = 17 s

Time = 1.2

Courant Number mean: 0.00055299392 max: 0.086585276
smoothSolver:  Solving for Ux, Initial residual = 0.0021682094, Final residual = 9.7385901e-08, No Iterations 1
smoothSolver:  Solving for Uy, Initial residual = 0.0034450816, Final residual = 1.4373149e-07, No Iterations 1
smoothSolver:  Solving for Uz, Initial residual = 0.0032018881, Final residual = 1.5462813e-07, No Iterations 1
DICPCG:  Solving for p, Initial residual = 0.037073365, Final residual = 0.0012642957, No Iterations 2
DICPCG:  Solving for p, Initial residual = 0.0063196829, Final residual = 0.0002809838, No Iterations 5
DICPCG:  Solving for p, Initial residual = 0.0014428998, Final residual = 7.1689917e-05, No Iterations 10
time step continuity errors : sum local = 7.8077978e-10, global = -5.9505037e-11, cumulative = -7.0574695e-08
DICPCG:  Solving for p, Initial residual = 0.00052040668, Final residual = 2.5881471e-05, No Iterations 17
DICPCG:  Solving for p, Initial residual = 0.00023191484, Final residual = 1.1515223e-05, No Iterations 139
DICPCG:  Solving for p, Initial residual = 0.0001936903, Final residual = 9.8015093e-07, No Iterations 157
time step continuity errors : sum local = 1.067341e-11, global = 6.1128152e-14, cumulative = -7.0574634e-08
ExecutionTime = 17.32 s  ClockTime = 19 s

Time = 1.3

Courant Number mean: 0.00055301643 max: 0.086607374
smoothSolver:  Solving for Ux, Initial residual = 0.0020036005, Final residual = 9.1726095e-08, No Iterations 1
smoothSolver:  Solving for Uy, Initial residual = 0.003183672, Final residual = 1.3592928e-07, No Iterations 1
smoothSolver:  Solving for Uz, Initial residual = 0.0029554984, Final residual = 1.4510886e-07, No Iterations 1
DICPCG:  Solving for p, Initial residual = 0.034026506, Final residual = 0.0011220464, No Iterations 2
DICPCG:  Solving for p, Initial residual = 0.0056960035, Final residual = 0.00024986538, No Iterations 5
DICPCG:  Solving for p, Initial residual = 0.0012865018, Final residual = 6.1444764e-05, No Iterations 13
time step continuity errors : sum local = 6.2684288e-10, global = -1.633409e-13, cumulative = -7.0574797e-08
DICPCG:  Solving for p, Initial residual = 0.00048024534, Final residual = 2.1611627e-05, No Iterations 18
DICPCG:  Solving for p, Initial residual = 0.00020151417, Final residual = 9.7386629e-06, No Iterations 39
DICPCG:  Solving for p, Initial residual = 0.00013742996, Final residual = 9.682567e-07, No Iterations 161
time step continuity errors : sum local = 9.8742157e-12, global = -6.1275044e-15, cumulative = -7.0574803e-08
ExecutionTime = 18.22 s  ClockTime = 20 s

Time = 1.4

Courant Number mean: 0.00055303753 max: 0.086617993
smoothSolver:  Solving for Ux, Initial residual = 0.0018644979, Final residual = 8.7078908e-08, No Iterations 1
smoothSolver:  Solving for Uy, Initial residual = 0.0029625631, Final residual = 1.2934686e-07, No Iterations 1
smoothSolver:  Solving for Uz, Initial residual = 0.0027473163, Final residual = 1.3683241e-07, No Iterations 1
DICPCG:  Solving for p, Initial residual = 0.031431039, Final residual = 0.0010148845, No Iterations 2
DICPCG:  Solving for p, Initial residual = 0.0051826747, Final residual = 0.00023138388, No Iterations 5
DICPCG:  Solving for p, Initial residual = 0.0011717012, Final residual = 5.8428291e-05, No Iterations 14
time step continuity errors : sum local = 5.6092926e-10, global = 3.8587112e-11, cumulative = -7.0536216e-08
DICPCG:  Solving for p, Initial residual = 0.00045110256, Final residual = 2.2155908e-05, No Iterations 22
DICPCG:  Solving for p, Initial residual = 0.00019154309, Final residual = 9.3010877e-06, No Iterations 131
DICPCG:  Solving for p, Initial residual = 0.00014771352, Final residual = 9.4346373e-07, No Iterations 49
time step continuity errors : sum local = 9.0510671e-12, global = -1.1499754e-12, cumulative = -7.0537366e-08
ExecutionTime = 19.09 s  ClockTime = 21 s

Time = 1.5

Courant Number mean: 0.00055305711 max: 0.086617368
smoothSolver:  Solving for Ux, Initial residual = 0.0017454132, Final residual = 8.3133501e-08, No Iterations 1
smoothSolver:  Solving for Uy, Initial residual = 0.0027733194, Final residual = 1.2343974e-07, No Iterations 1
smoothSolver:  Solving for Uz, Initial residual = 0.0025692928, Final residual = 1.2951084e-07, No Iterations 1
DICPCG:  Solving for p, Initial residual = 0.029209824, Final residual = 0.00092056827, No Iterations 2
DICPCG:  Solving for p, Initial residual = 0.0047446572, Final residual = 0.00022116686, No Iterations 5
DICPCG:  Solving for p, Initial residual = 0.0010699931, Final residual = 5.2591428e-05, No Iterations 16
time step continuity errors : sum local = 4.7705785e-10, global = 5.812491e-11, cumulative = -7.0479241e-08
DICPCG:  Solving for p, Initial residual = 0.00042197984, Final residual = 1.9850599e-05, No Iterations 132
DICPCG:  Solving for p, Initial residual = 0.00024870687, Final residual = 1.1828049e-05, No Iterations 9
DICPCG:  Solving for p, Initial residual = 7.5746847e-05, Final residual = 9.9638781e-07, No Iterations 55
time step continuity errors : sum local = 9.0301423e-12, global = 1.2650951e-12, cumulative = -7.0477976e-08
ExecutionTime = 20.13 s  ClockTime = 22 s

Time = 1.6

Courant Number mean: 0.00055307574 max: 0.086607321
smoothSolver:  Solving for Ux, Initial residual = 0.0016420059, Final residual = 7.9582096e-08, No Iterations 1
smoothSolver:  Solving for Uy, Initial residual = 0.0026092492, Final residual = 1.1827565e-07, No Iterations 1
smoothSolver:  Solving for Uz, Initial residual = 0.0024156182, Final residual = 1.230414e-07, No Iterations 1
DICPCG:  Solving for p, Initial residual = 0.027327842, Final residual = 0.00084720321, No Iterations 2
DICPCG:  Solving for p, Initial residual = 0.0043832845, Final residual = 0.00021632048, No Iterations 5
DICPCG:  Solving for p, Initial residual = 0.00099545905, Final residual = 4.7392332e-05, No Iterations 20
time step continuity errors : sum local = 4.0768716e-10, global = 7.9768966e-11, cumulative = -7.0398207e-08
DICPCG:  Solving for p, Initial residual = 0.00040511037, Final residual = 1.9810375e-05, No Iterations 127
DICPCG:  Solving for p, Initial residual = 0.00025534638, Final residual = 1.0832554e-05, No Iterations 10
DICPCG:  Solving for p, Initial residual = 7.7758664e-05, Final residual = 9.9297719e-07, No Iterations 55
time step continuity errors : sum local = 8.532962e-12, global = 1.3368298e-12, cumulative = -7.039687e-08
ExecutionTime = 21.06 s  ClockTime = 23 s

Time = 1.7

Courant Number mean: 0.00055309323 max: 0.086589069
smoothSolver:  Solving for Ux, Initial residual = 0.001551701, Final residual = 7.6361345e-08, No Iterations 1
smoothSolver:  Solving for Uy, Initial residual = 0.0024662771, Final residual = 1.1391411e-07, No Iterations 1
smoothSolver:  Solving for Uz, Initial residual = 0.0022823298, Final residual = 1.1739506e-07, No Iterations 1
DICPCG:  Solving for p, Initial residual = 0.02570796, Final residual = 0.00077898498, No Iterations 2
DICPCG:  Solving for p, Initial residual = 0.004069415, Final residual = 0.00018320074, No Iterations 6
DICPCG:  Solving for p, Initial residual = 0.00093016754, Final residual = 4.4832642e-05, No Iterations 21
time step continuity errors : sum local = 3.6683082e-10, global = 7.9439794e-11, cumulative = -7.031743e-08
DICPCG:  Solving for p, Initial residual = 0.00038820827, Final residual = 1.9284193e-05, No Iterations 130
DICPCG:  Solving for p, Initial residual = 0.00025887952, Final residual = 1.1369402e-05, No Iterations 9
DICPCG:  Solving for p, Initial residual = 7.6375813e-05, Final residual = 9.5670819e-07, No Iterations 49
time step continuity errors : sum local = 7.8195385e-12, global = 1.1305727e-12, cumulative = -7.03163e-08
ExecutionTime = 21.9 s  ClockTime = 24 s

Time = 1.8

Courant Number mean: 0.00055311044 max: 0.086563445
smoothSolver:  Solving for Ux, Initial residual = 0.0014720533, Final residual = 7.3642301e-08, No Iterations 1
smoothSolver:  Solving for Uy, Initial residual = 0.0023399009, Final residual = 1.0985257e-07, No Iterations 1
smoothSolver:  Solving for Uz, Initial residual = 0.0021647321, Final residual = 1.1224055e-07, No Iterations 1
DICPCG:  Solving for p, Initial residual = 0.024222068, Final residual = 0.00073323697, No Iterations 2
DICPCG:  Solving for p, Initial residual = 0.0037946728, Final residual = 0.00017786864, No Iterations 6
DICPCG:  Solving for p, Initial residual = 0.00087280058, Final residual = 4.0429743e-05, No Iterations 22
time step continuity errors : sum local = 3.155738e-10, global = 8.610217e-11, cumulative = -7.0230197e-08
DICPCG:  Solving for p, Initial residual = 0.00037028757, Final residual = 1.7752912e-05, No Iterations 130
DICPCG:  Solving for p, Initial residual = 0.00027060847, Final residual = 1.3003713e-05, No Iterations 6
DICPCG:  Solving for p, Initial residual = 7.6131774e-05, Final residual = 9.6680366e-07, No Iterations 51
time step continuity errors : sum local = 7.5376618e-12, global = 1.0285226e-12, cumulative = -7.0229169e-08
ExecutionTime = 22.73 s  ClockTime = 25 s

Time = 1.9

Courant Number mean: 0.00055312714 max: 0.086531857
smoothSolver:  Solving for Ux, Initial residual = 0.0014012942, Final residual = 7.1058455e-08, No Iterations 1
smoothSolver:  Solving for Uy, Initial residual = 0.0022273596, Final residual = 1.0609907e-07, No Iterations 1
smoothSolver:  Solving for Uz, Initial residual = 0.0020604547, Final residual = 1.0762841e-07, No Iterations 1
DICPCG:  Solving for p, Initial residual = 0.022823384, Final residual = 0.00069041749, No Iterations 2
DICPCG:  Solving for p, Initial residual = 0.0035250314, Final residual = 0.00016911848, No Iterations 9
DICPCG:  Solving for p, Initial residual = 0.00083376278, Final residual = 3.8954152e-05, No Iterations 16
time step continuity errors : sum local = 2.9082953e-10, global = 7.8345941e-11, cumulative = -7.0150823e-08
DICPCG:  Solving for p, Initial residual = 0.00033295854, Final residual = 1.6634678e-05, No Iterations 133
DICPCG:  Solving for p, Initial residual = 0.00026248424, Final residual = 1.2134473e-05, No Iterations 5
DICPCG:  Solving for p, Initial residual = 7.0320928e-05, Final residual = 9.9055219e-07, No Iterations 52
time step continuity errors : sum local = 7.3868667e-12, global = 1.0056052e-12, cumulative = -7.0149817e-08
ExecutionTime = 23.53 s  ClockTime = 25 s

Time = 2

Courant Number mean: 0.00055314305 max: 0.086494768
smoothSolver:  Solving for Ux, Initial residual = 0.0013379547, Final residual = 6.8604657e-08, No Iterations 1
smoothSolver:  Solving for Uy, Initial residual = 0.0021265693, Final residual = 1.0287613e-07, No Iterations 1
smoothSolver:  Solving for Uz, Initial residual = 0.0019673909, Final residual = 1.0353695e-07, No Iterations 1
DICPCG:  Solving for p, Initial residual = 0.021603588, Final residual = 0.00065035591, No Iterations 2
DICPCG:  Solving for p, Initial residual = 0.0033053047, Final residual = 0.00014872834, No Iterations 10
DICPCG:  Solving for p, Initial residual = 0.00079454095, Final residual = 3.9535811e-05, No Iterations 16
time step continuity errors : sum local = 2.8296625e-10, global = 8.3213069e-11, cumulative = -7.0066604e-08
DICPCG:  Solving for p, Initial residual = 0.00032551212, Final residual = 1.5836577e-05, No Iterations 131
DICPCG:  Solving for p, Initial residual = 0.0002768549, Final residual = 1.1596007e-05, No Iterations 5
DICPCG:  Solving for p, Initial residual = 7.201574e-05, Final residual = 9.7011742e-07, No Iterations 58
time step continuity errors : sum local = 6.9351197e-12, global = 1.0040489e-12, cumulative = -7.00656e-08
ExecutionTime = 24.57 s  ClockTime = 26 s

Time = 2.1

Courant Number mean: 0.00055315854 max: 0.086452632
smoothSolver:  Solving for Ux, Initial residual = 0.0012809335, Final residual = 6.6442961e-08, No Iterations 1
smoothSolver:  Solving for Uy, Initial residual = 0.0020358534, Final residual = 1.0002042e-07, No Iterations 1
smoothSolver:  Solving for Uz, Initial residual = 0.0018831278, Final residual = 9.9860354e-08, No Iterations 1
DICPCG:  Solving for p, Initial residual = 0.020551215, Final residual = 0.000610916, No Iterations 2
DICPCG:  Solving for p, Initial residual = 0.0031129932, Final residual = 0.00015091416, No Iterations 10
DICPCG:  Solving for p, Initial residual = 0.00075370287, Final residual = 3.6735474e-05, No Iterations 26
time step continuity errors : sum local = 2.5257335e-10, global = 8.6693243e-11, cumulative = -6.9978907e-08
DICPCG:  Solving for p, Initial residual = 0.00031488723, Final residual = 1.4816683e-05, No Iterations 129
DICPCG:  Solving for p, Initial residual = 0.00026904789, Final residual = 1.0939912e-05, No Iterations 5
DICPCG:  Solving for p, Initial residual = 6.9567106e-05, Final residual = 9.8094387e-07, No Iterations 48
time step continuity errors : sum local = 6.7361186e-12, global = 9.3602535e-13, cumulative = -6.9977971e-08
ExecutionTime = 25.36 s  ClockTime = 27 s

Time = 2.2

Courant Number mean: 0.00055317387 max: 0.086405728
smoothSolver:  Solving for Ux, Initial residual = 0.0012293064, Final residual = 6.4483124e-08, No Iterations 1
smoothSolver:  Solving for Uy, Initial residual = 0.0019533407, Final residual = 9.7290796e-08, No Iterations 1
smoothSolver:  Solving for Uz, Initial residual = 0.0018065902, Final residual = 9.6397546e-08, No Iterations 1
DICPCG:  Solving for p, Initial residual = 0.019563121, Final residual = 0.00057779981, No Iterations 2
DICPCG:  Solving for p, Initial residual = 0.0029376552, Final residual = 0.00013991858, No Iterations 11
DICPCG:  Solving for p, Initial residual = 0.00071603006, Final residual = 3.4006713e-05, No Iterations 129
time step continuity errors : sum local = 2.2502797e-10, global = 9.6826884e-13, cumulative = -6.9977003e-08
DICPCG:  Solving for p, Initial residual = 0.00038784246, Final residual = 1.8161502e-05, No Iterations 8
DICPCG:  Solving for p, Initial residual = 0.00011479515, Final residual = 5.5138212e-06, No Iterations 36
DICPCG:  Solving for p, Initial residual = 7.41864e-05, Final residual = 9.9858452e-07, No Iterations 141
time step continuity errors : sum local = 6.5998109e-12, global = 9.0636956e-15, cumulative = -6.9976994e-08
ExecutionTime = 26.42 s  ClockTime = 28 s

Time = 2.3

Courant Number mean: 0.00055318886 max: 0.086354544
smoothSolver:  Solving for Ux, Initial residual = 0.0011822706, Final residual = 6.2526544e-08, No Iterations 1
smoothSolver:  Solving for Uy, Initial residual = 0.0018784971, Final residual = 9.479994e-08, No Iterations 1
smoothSolver:  Solving for Uz, Initial residual = 0.0017368222, Final residual = 9.325481e-08, No Iterations 1
DICPCG:  Solving for p, Initial residual = 0.018744152, Final residual = 0.00056258552, No Iterations 2
DICPCG:  Solving for p, Initial residual = 0.0027908819, Final residual = 0.00013508301, No Iterations 13
DICPCG:  Solving for p, Initial residual = 0.00069823788, Final residual = 3.3925489e-05, No Iterations 22
time step continuity errors : sum local = 2.1641889e-10, global = 7.9415845e-11, cumulative = -6.9897578e-08
DICPCG:  Solving for p, Initial residual = 0.00028130006, Final residual = 1.2629828e-05, No Iterations 128
DICPCG:  Solving for p, Initial residual = 0.00026114688, Final residual = 9.982258e-06, No Iterations 5
DICPCG:  Solving for p, Initial residual = 6.6541552e-05, Final residual = 9.8299945e-07, No Iterations 49
time step continuity errors : sum local = 6.2633558e-12, global = 8.1952409e-13, cumulative = -6.9896758e-08
ExecutionTime = 27.23 s  ClockTime = 29 s

Time = 2.4

Courant Number mean: 0.00055320396 max: 0.086300169
smoothSolver:  Solving for Ux, Initial residual = 0.0011390751, Final residual = 6.0557742e-08, No Iterations 1
smoothSolver:  Solving for Uy, Initial residual = 0.0018101896, Final residual = 9.2038798e-08, No Iterations 1
smoothSolver:  Solving for Uz, Initial residual = 0.001672912, Final residual = 8.9826865e-08, No Iterations 1
DICPCG:  Solving for p, Initial residual = 0.017976853, Final residual = 0.00055994529, No Iterations 2
DICPCG:  Solving for p, Initial residual = 0.0026783151, Final residual = 0.00011783036, No Iterations 14
DICPCG:  Solving for p, Initial residual = 0.0006732859, Final residual = 3.2232628e-05, No Iterations 132
time step continuity errors : sum local = 1.9854979e-10, global = 1.0000609e-12, cumulative = -6.9895758e-08
DICPCG:  Solving for p, Initial residual = 0.00041747109, Final residual = 1.8752741e-05, No Iterations 9
DICPCG:  Solving for p, Initial residual = 0.00012169046, Final residual = 6.0522503e-06, No Iterations 29
DICPCG:  Solving for p, Initial residual = 6.2632132e-05, Final residual = 9.3724662e-07, No Iterations 140
time step continuity errors : sum local = 5.7654639e-12, global = 2.2833239e-14, cumulative = -6.9895735e-08
ExecutionTime = 28.44 s  ClockTime = 30 s

Time = 2.5

Courant Number mean: 0.00055321881 max: 0.086241422
smoothSolver:  Solving for Ux, Initial residual = 0.0010990115, Final residual = 5.898369e-08, No Iterations 1
smoothSolver:  Solving for Uy, Initial residual = 0.0017474566, Final residual = 8.9872622e-08, No Iterations 1
smoothSolver:  Solving for Uz, Initial residual = 0.0016145816, Final residual = 8.6937591e-08, No Iterations 1
DICPCG:  Solving for p, Initial residual = 0.017229051, Final residual = 0.00049853763, No Iterations 2
DICPCG:  Solving for p, Initial residual = 0.0025324264, Final residual = 0.00012017461, No Iterations 14
DICPCG:  Solving for p, Initial residual = 0.00064565082, Final residual = 3.0802775e-05, No Iterations 129
time step continuity errors : sum local = 1.8346334e-10, global = 7.7705128e-13, cumulative = -6.9894958e-08
DICPCG:  Solving for p, Initial residual = 0.0003945023, Final residual = 1.7200054e-05, No Iterations 9
DICPCG:  Solving for p, Initial residual = 0.00011582722, Final residual = 5.6611072e-06, No Iterations 36
DICPCG:  Solving for p, Initial residual = 6.9838988e-05, Final residual = 9.5193535e-07, No Iterations 148
time step continuity errors : sum local = 5.6628026e-12, global = 9.0111459e-15, cumulative = -6.9894949e-08
ExecutionTime = 29.86 s  ClockTime = 32 s

Time = 2.6

Courant Number mean: 0.00055323406 max: 0.086178495
smoothSolver:  Solving for Ux, Initial residual = 0.0010621699, Final residual = 5.7364053e-08, No Iterations 1
smoothSolver:  Solving for Uy, Initial residual = 0.0016900567, Final residual = 8.7722659e-08, No Iterations 1
smoothSolver:  Solving for Uz, Initial residual = 0.0015602012, Final residual = 8.4040703e-08, No Iterations 1
DICPCG:  Solving for p, Initial residual = 0.016613804, Final residual = 0.000484084, No Iterations 2
DICPCG:  Solving for p, Initial residual = 0.0024395658, Final residual = 0.00011938075, No Iterations 14
DICPCG:  Solving for p, Initial residual = 0.0006348194, Final residual = 3.1477227e-05, No Iterations 128
time step continuity errors : sum local = 1.8153119e-10, global = 5.0104869e-13, cumulative = -6.9894448e-08
DICPCG:  Solving for p, Initial residual = 0.00038875087, Final residual = 1.7070063e-05, No Iterations 9
DICPCG:  Solving for p, Initial residual = 0.00011484905, Final residual = 5.4612053e-06, No Iterations 36
DICPCG:  Solving for p, Initial residual = 7.0917653e-05, Final residual = 9.5663994e-07, No Iterations 147
time step continuity errors : sum local = 5.5105868e-12, global = 7.1203196e-15, cumulative = -6.9894441e-08
ExecutionTime = 31.31 s  ClockTime = 34 s

Time = 2.7

Courant Number mean: 0.00055324992 max: 0.086116755
smoothSolver:  Solving for Ux, Initial residual = 0.0010280903, Final residual = 5.5998817e-08, No Iterations 1
smoothSolver:  Solving for Uy, Initial residual = 0.0016369151, Final residual = 8.5652445e-08, No Iterations 1
smoothSolver:  Solving for Uz, Initial residual = 0.0015096402, Final residual = 8.1314997e-08, No Iterations 1
DICPCG:  Solving for p, Initial residual = 0.015962503, Final residual = 0.00046486497, No Iterations 2
DICPCG:  Solving for p, Initial residual = 0.0023140786, Final residual = 0.00011320656, No Iterations 14
DICPCG:  Solving for p, Initial residual = 0.00060292268, Final residual = 2.8768189e-05, No Iterations 126
time step continuity errors : sum local = 1.6088013e-10, global = 2.8623041e-13, cumulative = -6.9894155e-08
DICPCG:  Solving for p, Initial residual = 0.00038007078, Final residual = 1.893309e-05, No Iterations 8
DICPCG:  Solving for p, Initial residual = 0.00010963835, Final residual = 5.1715709e-06, No Iterations 34
DICPCG:  Solving for p, Initial residual = 6.2585044e-05, Final residual = 9.9609737e-07, No Iterations 147
time step continuity errors : sum local = 5.5638837e-12, global = 8.5677455e-15, cumulative = -6.9894146e-08
ExecutionTime = 32.66 s  ClockTime = 35 s

Time = 2.8

Courant Number mean: 0.00055326552 max: 0.086050979
smoothSolver:  Solving for Ux, Initial residual = 0.00099632313, Final residual = 5.4626075e-08, No Iterations 1
smoothSolver:  Solving for Uy, Initial residual = 0.0015873074, Final residual = 8.3799925e-08, No Iterations 1
smoothSolver:  Solving for Uz, Initial residual = 0.0014627407, Final residual = 7.886821e-08, No Iterations 1
DICPCG:  Solving for p, Initial residual = 0.015321707, Final residual = 0.00045328553, No Iterations 2
DICPCG:  Solving for p, Initial residual = 0.0022162335, Final residual = 9.6184631e-05, No Iterations 15
DICPCG:  Solving for p, Initial residual = 0.0005788199, Final residual = 2.8552854e-05, No Iterations 125
time step continuity errors : sum local = 1.5502362e-10, global = 4.6384246e-13, cumulative = -6.9893683e-08
DICPCG:  Solving for p, Initial residual = 0.00038477452, Final residual = 1.7463883e-05, No Iterations 9
DICPCG:  Solving for p, Initial residual = 0.00011161903, Final residual = 5.2918029e-06, No Iterations 29
DICPCG:  Solving for p, Initial residual = 5.640828e-05, Final residual = 9.6467138e-07, No Iterations 146
time step continuity errors : sum local = 5.2311172e-12, global = 1.9043382e-14, cumulative = -6.9893664e-08
ExecutionTime = 34.15 s  ClockTime = 37 s

Time = 2.9

Courant Number mean: 0.0005532813 max: 0.0859823
smoothSolver:  Solving for Ux, Initial residual = 0.00096681134, Final residual = 5.3271553e-08, No Iterations 1
smoothSolver:  Solving for Uy, Initial residual = 0.0015412492, Final residual = 8.1940243e-08, No Iterations 1
smoothSolver:  Solving for Uz, Initial residual = 0.00141914, Final residual = 7.6587226e-08, No Iterations 1
DICPCG:  Solving for p, Initial residual = 0.014797654, Final residual = 0.00044727061, No Iterations 2
DICPCG:  Solving for p, Initial residual = 0.0021369459, Final residual = 9.7564907e-05, No Iterations 15
DICPCG:  Solving for p, Initial residual = 0.00056810786, Final residual = 2.8393795e-05, No Iterations 131
time step continuity errors : sum local = 1.4981652e-10, global = 4.7766822e-13, cumulative = -6.9893186e-08
DICPCG:  Solving for p, Initial residual = 0.00039759312, Final residual = 1.8066146e-05, No Iterations 9
DICPCG:  Solving for p, Initial residual = 0.00011331586, Final residual = 5.6367352e-06, No Iterations 32
DICPCG:  Solving for p, Initial residual = 6.4562754e-05, Final residual = 9.5358398e-07, No Iterations 150
time step continuity errors : sum local = 5.0251247e-12, global = 1.2015766e-14, cumulative = -6.9893174e-08
ExecutionTime = 35.65 s  ClockTime = 39 s

Time = 3

Courant Number mean: 0.00055329697 max: 0.085913022
smoothSolver:  Solving for Ux, Initial residual = 0.00093923613, Final residual = 5.1875801e-08, No Iterations 1
smoothSolver:  Solving for Uy, Initial residual = 0.0014983017, Final residual = 8.0256469e-08, No Iterations 1
smoothSolver:  Solving for Uz, Initial residual = 0.0013783787, Final residual = 7.4517823e-08, No Iterations 1
DICPCG:  Solving for p, Initial residual = 0.014284101, Final residual = 0.00043261125, No Iterations 2
DICPCG:  Solving for p, Initial residual = 0.0020578388, Final residual = 9.7661916e-05, No Iterations 15
DICPCG:  Solving for p, Initial residual = 0.00056157834, Final residual = 2.7869671e-05, No Iterations 133
time step continuity errors : sum local = 1.4306527e-10, global = 3.7796815e-13, cumulative = -6.9892796e-08
DICPCG:  Solving for p, Initial residual = 0.00040657989, Final residual = 1.7821579e-05, No Iterations 9
DICPCG:  Solving for p, Initial residual = 0.00011471279, Final residual = 5.260866e-06, No Iterations 32
DICPCG:  Solving for p, Initial residual = 6.102959e-05, Final residual = 9.6452651e-07, No Iterations 148
time step continuity errors : sum local = 4.9448159e-12, global = 2.5476605e-14, cumulative = -6.989277e-08
ExecutionTime = 37.23 s  ClockTime = 40 s

Time = 3.1

Courant Number mean: 0.00055331261 max: 0.085843594
smoothSolver:  Solving for Ux, Initial residual = 0.00091332281, Final residual = 5.0569943e-08, No Iterations 1
smoothSolver:  Solving for Uy, Initial residual = 0.0014580154, Final residual = 7.8769305e-08, No Iterations 1
smoothSolver:  Solving for Uz, Initial residual = 0.0013401348, Final residual = 7.2530214e-08, No Iterations 1
DICPCG:  Solving for p, Initial residual = 0.01376171, Final residual = 0.00042498624, No Iterations 2
DICPCG:  Solving for p, Initial residual = 0.0019774875, Final residual = 9.3677657e-05, No Iterations 16
DICPCG:  Solving for p, Initial residual = 0.00054405745, Final residual = 2.570925e-05, No Iterations 131
time step continuity errors : sum local = 1.2852705e-10, global = 3.8886444e-13, cumulative = -6.9892382e-08
DICPCG:  Solving for p, Initial residual = 0.00039863673, Final residual = 1.9781626e-05, No Iterations 6
DICPCG:  Solving for p, Initial residual = 0.00010815921, Final residual = 5.3019417e-06, No Iterations 34
DICPCG:  Solving for p, Initial residual = 6.4612112e-05, Final residual = 9.6942178e-07, No Iterations 149
time step continuity errors : sum local = 4.8401364e-12, global = 1.9486954e-14, cumulative = -6.9892362e-08
ExecutionTime = 38.61 s  ClockTime = 42 s

Time = 3.2

Courant Number mean: 0.00055332843 max: 0.085774362
smoothSolver:  Solving for Ux, Initial residual = 0.00088897094, Final residual = 4.9361192e-08, No Iterations 1
smoothSolver:  Solving for Uy, Initial residual = 0.0014201842, Final residual = 7.7301255e-08, No Iterations 1
smoothSolver:  Solving for Uz, Initial residual = 0.0013043135, Final residual = 7.0590335e-08, No Iterations 1
DICPCG:  Solving for p, Initial residual = 0.013316761, Final residual = 0.00041230413, No Iterations 2
DICPCG:  Solving for p, Initial residual = 0.0019034043, Final residual = 9.2542747e-05, No Iterations 16
DICPCG:  Solving for p, Initial residual = 0.00053191686, Final residual = 2.5103686e-05, No Iterations 131
time step continuity errors : sum local = 1.2233481e-10, global = 4.1863143e-13, cumulative = -6.9891943e-08
DICPCG:  Solving for p, Initial residual = 0.00039104251, Final residual = 1.74412e-05, No Iterations 9
DICPCG:  Solving for p, Initial residual = 0.00010981249, Final residual = 5.1348363e-06, No Iterations 32
DICPCG:  Solving for p, Initial residual = 6.0208978e-05, Final residual = 9.7192857e-07, No Iterations 149
time step continuity errors : sum local = 4.7304821e-12, global = 1.8295441e-14, cumulative = -6.9891925e-08
ExecutionTime = 40 s  ClockTime = 44 s

Time = 3.3

Courant Number mean: 0.00055334463 max: 0.085705423
smoothSolver:  Solving for Ux, Initial residual = 0.00086605365, Final residual = 4.78446e-08, No Iterations 1
smoothSolver:  Solving for Uy, Initial residual = 0.0013846439, Final residual = 7.5691088e-08, No Iterations 1
smoothSolver:  Solving for Uz, Initial residual = 0.0012703214, Final residual = 6.841733e-08, No Iterations 1
DICPCG:  Solving for p, Initial residual = 0.013066629, Final residual = 0.00040669808, No Iterations 2
DICPCG:  Solving for p, Initial residual = 0.0018668772, Final residual = 8.8713615e-05, No Iterations 17
DICPCG:  Solving for p, Initial residual = 0.00052289439, Final residual = 2.5157093e-05, No Iterations 131
time step continuity errors : sum local = 1.1957421e-10, global = 2.219271e-13, cumulative = -6.9891703e-08
DICPCG:  Solving for p, Initial residual = 0.0003941819, Final residual = 1.8846539e-05, No Iterations 6
DICPCG:  Solving for p, Initial residual = 0.00010685543, Final residual = 5.0435225e-06, No Iterations 34
DICPCG:  Solving for p, Initial residual = 6.2821572e-05, Final residual = 9.3147022e-07, No Iterations 149
time step continuity errors : sum local = 4.4216087e-12, global = 1.3086024e-14, cumulative = -6.989169e-08
ExecutionTime = 41.67 s  ClockTime = 46 s

Time = 3.4

Courant Number mean: 0.00055336084 max: 0.085636936
smoothSolver:  Solving for Ux, Initial residual = 0.00084438721, Final residual = 4.6754966e-08, No Iterations 1
smoothSolver:  Solving for Uy, Initial residual = 0.0013510023, Final residual = 7.4232757e-08, No Iterations 1
smoothSolver:  Solving for Uz, Initial residual = 0.0012384269, Final residual = 6.651678e-08, No Iterations 1
DICPCG:  Solving for p, Initial residual = 0.01261722, Final residual = 0.00039103006, No Iterations 2
DICPCG:  Solving for p, Initial residual = 0.0017937539, Final residual = 8.6586795e-05, No Iterations 17
DICPCG:  Solving for p, Initial residual = 0.00051328148, Final residual = 2.549802e-05, No Iterations 131
time step continuity errors : sum local = 1.1831311e-10, global = 2.6860145e-13, cumulative = -6.9891422e-08
DICPCG:  Solving for p, Initial residual = 0.00038004889, Final residual = 1.7907299e-05, No Iterations 9
DICPCG:  Solving for p, Initial residual = 0.00010768775, Final residual = 5.0792495e-06, No Iterations 32
DICPCG:  Solving for p, Initial residual = 5.9206761e-05, Final residual = 9.9460559e-07, No Iterations 148
time step continuity errors : sum local = 4.6095059e-12, global = 2.0501678e-14, cumulative = -6.9891401e-08
ExecutionTime = 43.1 s  ClockTime = 47 s

Time = 3.5

Courant Number mean: 0.0005533771 max: 0.0855694
smoothSolver:  Solving for Ux, Initial residual = 0.0008241101, Final residual = 4.5761871e-08, No Iterations 1
smoothSolver:  Solving for Uy, Initial residual = 0.0013193553, Final residual = 7.2916389e-08, No Iterations 1
smoothSolver:  Solving for Uz, Initial residual = 0.001208313, Final residual = 6.4768121e-08, No Iterations 1
DICPCG:  Solving for p, Initial residual = 0.012281482, Final residual = 0.00038226836, No Iterations 2
DICPCG:  Solving for p, Initial residual = 0.0017446546, Final residual = 8.6919913e-05, No Iterations 17
DICPCG:  Solving for p, Initial residual = 0.00051484826, Final residual = 2.5235284e-05, No Iterations 132
time step continuity errors : sum local = 1.1441235e-10, global = 2.2058683e-13, cumulative = -6.989118e-08
DICPCG:  Solving for p, Initial residual = 0.00038678827, Final residual = 1.7899454e-05, No Iterations 9
DICPCG:  Solving for p, Initial residual = 0.00010977608, Final residual = 5.4555019e-06, No Iterations 31
DICPCG:  Solving for p, Initial residual = 5.7657529e-05, Final residual = 9.7238778e-07, No Iterations 148
time step continuity errors : sum local = 4.4031994e-12, global = 2.7680465e-14, cumulative = -6.9891153e-08
ExecutionTime = 44.32 s  ClockTime = 48 s

Time = 3.6

Courant Number mean: 0.00055339325 max: 0.0855033
smoothSolver:  Solving for Ux, Initial residual = 0.00080494272, Final residual = 4.4812196e-08, No Iterations 1
smoothSolver:  Solving for Uy, Initial residual = 0.001289451, Final residual = 7.1618508e-08, No Iterations 1
smoothSolver:  Solving for Uz, Initial residual = 0.0011800817, Final residual = 6.3137926e-08, No Iterations 1
DICPCG:  Solving for p, Initial residual = 0.011855981, Final residual = 0.00037564163, No Iterations 2
DICPCG:  Solving for p, Initial residual = 0.0016805414, Final residual = 8.3563921e-05, No Iterations 18
DICPCG:  Solving for p, Initial residual = 0.00049301296, Final residual = 2.329624e-05, No Iterations 129
time step continuity errors : sum local = 1.0328665e-10, global = 4.4619088e-13, cumulative = -6.9890707e-08
DICPCG:  Solving for p, Initial residual = 0.00037019116, Final residual = 1.7145342e-05, No Iterations 9
DICPCG:  Solving for p, Initial residual = 0.00010299383, Final residual = 5.1496889e-06, No Iterations 32
DICPCG:  Solving for p, Initial residual = 5.8158737e-05, Final residual = 9.4768176e-07, No Iterations 147
time step continuity errors : sum local = 4.1966899e-12, global = 1.4580273e-14, cumulative = -6.9890692e-08
ExecutionTime = 45.41 s  ClockTime = 50 s

Time = 3.7

Courant Number mean: 0.00055340934 max: 0.085438586
smoothSolver:  Solving for Ux, Initial residual = 0.0007868481, Final residual = 4.3826007e-08, No Iterations 1
smoothSolver:  Solving for Uy, Initial residual = 0.0012612563, Final residual = 7.0391175e-08, No Iterations 1
smoothSolver:  Solving for Uz, Initial residual = 0.0011537113, Final residual = 6.1746949e-08, No Iterations 1
DICPCG:  Solving for p, Initial residual = 0.011531536, Final residual = 0.0003875206, No Iterations 2
DICPCG:  Solving for p, Initial residual = 0.0016369971, Final residual = 8.0336263e-05, No Iterations 18
DICPCG:  Solving for p, Initial residual = 0.00047781951, Final residual = 2.3472096e-05, No Iterations 123
time step continuity errors : sum local = 1.0184667e-10, global = 2.9652232e-13, cumulative = -6.9890395e-08
DICPCG:  Solving for p, Initial residual = 0.00034930377, Final residual = 1.6887558e-05, No Iterations 9
DICPCG:  Solving for p, Initial residual = 9.8722566e-05, Final residual = 4.6850645e-06, No Iterations 30
DICPCG:  Solving for p, Initial residual = 5.0450328e-05, Final residual = 9.8635913e-07, No Iterations 47
time step continuity errors : sum local = 4.2752172e-12, global = 9.2682281e-13, cumulative = -6.9889469e-08
ExecutionTime = 46.27 s  ClockTime = 50 s

Time = 3.8

Courant Number mean: 0.0005534256 max: 0.085375177
smoothSolver:  Solving for Ux, Initial residual = 0.00076998193, Final residual = 4.2862402e-08, No Iterations 1
smoothSolver:  Solving for Uy, Initial residual = 0.0012345108, Final residual = 6.9183418e-08, No Iterations 1
smoothSolver:  Solving for Uz, Initial residual = 0.0011285128, Final residual = 6.0257196e-08, No Iterations 1
DICPCG:  Solving for p, Initial residual = 0.011168906, Final residual = 0.00036793005, No Iterations 2
DICPCG:  Solving for p, Initial residual = 0.0015855731, Final residual = 7.8184605e-05, No Iterations 20
DICPCG:  Solving for p, Initial residual = 0.00047555202, Final residual = 2.2555699e-05, No Iterations 130
time step continuity errors : sum local = 9.5855853e-11, global = 2.3573676e-13, cumulative = -6.9889233e-08
DICPCG:  Solving for p, Initial residual = 0.0003736899, Final residual = 1.8124624e-05, No Iterations 6
DICPCG:  Solving for p, Initial residual = 9.9460667e-05, Final residual = 4.9480837e-06, No Iterations 32
DICPCG:  Solving for p, Initial residual = 5.6623239e-05, Final residual = 9.6144257e-07, No Iterations 146
time step continuity errors : sum local = 4.0808154e-12, global = 2.5045566e-14, cumulative = -6.9889208e-08
ExecutionTime = 47.28 s  ClockTime = 51 s

Time = 3.9

Courant Number mean: 0.00055344147 max: 0.085312735
smoothSolver:  Solving for Ux, Initial residual = 0.00075365512, Final residual = 4.2000537e-08, No Iterations 1
smoothSolver:  Solving for Uy, Initial residual = 0.0012089176, Final residual = 6.8090641e-08, No Iterations 1
smoothSolver:  Solving for Uz, Initial residual = 0.0011047321, Final residual = 5.8793404e-08, No Iterations 1
DICPCG:  Solving for p, Initial residual = 0.01093351, Final residual = 0.00036878556, No Iterations 2
DICPCG:  Solving for p, Initial residual = 0.0015485882, Final residual = 7.5288275e-05, No Iterations 20
DICPCG:  Solving for p, Initial residual = 0.00046727056, Final residual = 2.2996979e-05, No Iterations 132
time step continuity errors : sum local = 9.5758141e-11, global = 9.1045297e-14, cumulative = -6.9889117e-08
DICPCG:  Solving for p, Initial residual = 0.0003532423, Final residual = 1.7344076e-05, No Iterations 6
DICPCG:  Solving for p, Initial residual = 9.4333676e-05, Final residual = 4.2424172e-06, No Iterations 32
DICPCG:  Solving for p, Initial residual = 5.1921954e-05, Final residual = 9.4654401e-07, No Iterations 139
time step continuity errors : sum local = 3.9368024e-12, global = 2.1139964e-14, cumulative = -6.9889096e-08
ExecutionTime = 48.39 s  ClockTime = 53 s

Time = 4

Courant Number mean: 0.00055345721 max: 0.085250853
smoothSolver:  Solving for Ux, Initial residual = 0.00073796315, Final residual = 4.1107893e-08, No Iterations 1
smoothSolver:  Solving for Uy, Initial residual = 0.0011846788, Final residual = 6.700753e-08, No Iterations 1
smoothSolver:  Solving for Uz, Initial residual = 0.0010819728, Final residual = 5.7380872e-08, No Iterations 1
DICPCG:  Solving for p, Initial residual = 0.010677615, Final residual = 0.0003619391, No Iterations 2
DICPCG:  Solving for p, Initial residual = 0.0015129679, Final residual = 7.4868554e-05, No Iterations 17
DICPCG:  Solving for p, Initial residual = 0.00045251843, Final residual = 2.1946416e-05, No Iterations 135
time step continuity errors : sum local = 8.9598432e-11, global = 4.59339e-14, cumulative = -6.988905e-08
DICPCG:  Solving for p, Initial residual = 0.00035070889, Final residual = 1.6923843e-05, No Iterations 6
DICPCG:  Solving for p, Initial residual = 9.3368774e-05, Final residual = 4.5376546e-06, No Iterations 30
DICPCG:  Solving for p, Initial residual = 4.9374171e-05, Final residual = 9.8641509e-07, No Iterations 49
time step continuity errors : sum local = 4.0226369e-12, global = 7.9186482e-13, cumulative = -6.9888258e-08
ExecutionTime = 49.49 s  ClockTime = 54 s

Time = 4.1

Courant Number mean: 0.00055347277 max: 0.085189302
smoothSolver:  Solving for Ux, Initial residual = 0.00072332642, Final residual = 4.0153491e-08, No Iterations 1
smoothSolver:  Solving for Uy, Initial residual = 0.0011616022, Final residual = 6.579944e-08, No Iterations 1
smoothSolver:  Solving for Uz, Initial residual = 0.0010602639, Final residual = 5.6083674e-08, No Iterations 1
DICPCG:  Solving for p, Initial residual = 0.010332651, Final residual = 0.00036609711, No Iterations 2
DICPCG:  Solving for p, Initial residual = 0.0014646608, Final residual = 6.9749859e-05, No Iterations 21
DICPCG:  Solving for p, Initial residual = 0.00046165346, Final residual = 2.2303701e-05, No Iterations 132
time step continuity errors : sum local = 8.9344522e-11, global = 2.1643882e-13, cumulative = -6.9888041e-08
DICPCG:  Solving for p, Initial residual = 0.00036917983, Final residual = 1.697329e-05, No Iterations 6
DICPCG:  Solving for p, Initial residual = 9.6565567e-05, Final residual = 4.8070321e-06, No Iterations 27
DICPCG:  Solving for p, Initial residual = 4.656495e-05, Final residual = 9.674829e-07, No Iterations 143
time step continuity errors : sum local = 3.8708463e-12, global = 3.0538308e-14, cumulative = -6.9888011e-08
ExecutionTime = 50.6 s  ClockTime = 55 s

Time = 4.2

Courant Number mean: 0.00055348798 max: 0.085128375
smoothSolver:  Solving for Ux, Initial residual = 0.00070908513, Final residual = 3.9182592e-08, No Iterations 1
smoothSolver:  Solving for Uy, Initial residual = 0.0011395365, Final residual = 6.4741172e-08, No Iterations 1
smoothSolver:  Solving for Uz, Initial residual = 0.0010396644, Final residual = 5.4910056e-08, No Iterations 1
DICPCG:  Solving for p, Initial residual = 0.010059523, Final residual = 0.00035088506, No Iterations 2
DICPCG:  Solving for p, Initial residual = 0.0014195008, Final residual = 6.8129192e-05, No Iterations 21
DICPCG:  Solving for p, Initial residual = 0.00045008794, Final residual = 2.2040944e-05, No Iterations 132
time step continuity errors : sum local = 8.6668978e-11, global = 2.6506277e-13, cumulative = -6.9887746e-08
DICPCG:  Solving for p, Initial residual = 0.00034837152, Final residual = 1.6691351e-05, No Iterations 6
DICPCG:  Solving for p, Initial residual = 9.205931e-05, Final residual = 4.3528356e-06, No Iterations 29
DICPCG:  Solving for p, Initial residual = 4.6412349e-05, Final residual = 9.8186873e-07, No Iterations 47
time step continuity errors : sum local = 3.8564781e-12, global = 8.0593963e-13, cumulative = -6.988694e-08
ExecutionTime = 51.49 s  ClockTime = 56 s

Time = 4.3

Courant Number mean: 0.00055350315 max: 0.085068193
smoothSolver:  Solving for Ux, Initial residual = 0.00069562714, Final residual = 3.8121102e-08, No Iterations 1
smoothSolver:  Solving for Uy, Initial residual = 0.0011184011, Final residual = 6.3700957e-08, No Iterations 1
smoothSolver:  Solving for Uz, Initial residual = 0.0010200175, Final residual = 5.3764137e-08, No Iterations 1
DICPCG:  Solving for p, Initial residual = 0.0098778233, Final residual = 0.00034655298, No Iterations 2
DICPCG:  Solving for p, Initial residual = 0.001393084, Final residual = 6.7687058e-05, No Iterations 21
DICPCG:  Solving for p, Initial residual = 0.00044711149, Final residual = 2.2002885e-05, No Iterations 132
time step continuity errors : sum local = 8.4971056e-11, global = 2.7884904e-13, cumulative = -6.9886661e-08
DICPCG:  Solving for p, Initial residual = 0.00035326298, Final residual = 1.708447e-05, No Iterations 6
DICPCG:  Solving for p, Initial residual = 9.330146e-05, Final residual = 4.5692802e-06, No Iterations 29
DICPCG:  Solving for p, Initial residual = 4.7565794e-05, Final residual = 9.4564334e-07, No Iterations 48
time step continuity errors : sum local = 3.6476589e-12, global = 7.6498899e-13, cumulative = -6.9885896e-08
ExecutionTime = 52.36 s  ClockTime = 57 s

Time = 4.4

Courant Number mean: 0.00055351806 max: 0.085008552
smoothSolver:  Solving for Ux, Initial residual = 0.00068283567, Final residual = 3.7256545e-08, No Iterations 1
smoothSolver:  Solving for Uy, Initial residual = 0.0010983865, Final residual = 6.2601495e-08, No Iterations 1
smoothSolver:  Solving for Uz, Initial residual = 0.0010010812, Final residual = 5.2696195e-08, No Iterations 1
DICPCG:  Solving for p, Initial residual = 0.0096362913, Final residual = 0.0003445448, No Iterations 2
DICPCG:  Solving for p, Initial residual = 0.0013528906, Final residual = 6.596616e-05, No Iterations 21
DICPCG:  Solving for p, Initial residual = 0.00043881704, Final residual = 2.1564102e-05, No Iterations 132
time step continuity errors : sum local = 8.1826211e-11, global = 2.5042652e-13, cumulative = -6.9885646e-08
DICPCG:  Solving for p, Initial residual = 0.00034315096, Final residual = 1.695076e-05, No Iterations 6
DICPCG:  Solving for p, Initial residual = 9.1133442e-05, Final residual = 4.2373784e-06, No Iterations 29
DICPCG:  Solving for p, Initial residual = 4.6019695e-05, Final residual = 9.855256e-07, No Iterations 46
time step continuity errors : sum local = 3.7354789e-12, global = 7.0559479e-13, cumulative = -6.988494e-08
ExecutionTime = 53.23 s  ClockTime = 58 s

Time = 4.5

Courant Number mean: 0.0005535329 max: 0.084949616
smoothSolver:  Solving for Ux, Initial residual = 0.00067054205, Final residual = 3.6502264e-08, No Iterations 1
smoothSolver:  Solving for Uy, Initial residual = 0.0010793879, Final residual = 6.1642745e-08, No Iterations 1
smoothSolver:  Solving for Uz, Initial residual = 0.00098285095, Final residual = 5.1629623e-08, No Iterations 1
DICPCG:  Solving for p, Initial residual = 0.0096144273, Final residual = 0.00039664368, No Iterations 2
DICPCG:  Solving for p, Initial residual = 0.0013884728, Final residual = 6.9224212e-05, No Iterations 22
DICPCG:  Solving for p, Initial residual = 0.00049288436, Final residual = 2.3048088e-05, No Iterations 122
time step continuity errors : sum local = 8.5952614e-11, global = 1.9660432e-13, cumulative = -6.9884743e-08
DICPCG:  Solving for p, Initial residual = 0.0004345149, Final residual = 2.0955272e-05, No Iterations 5
DICPCG:  Solving for p, Initial residual = 0.00011021448, Final residual = 4.867788e-06, No Iterations 32
DICPCG:  Solving for p, Initial residual = 6.968891e-05, Final residual = 9.1711606e-07, No Iterations 147
time step continuity errors : sum local = 3.4154007e-12, global = 1.4084307e-14, cumulative = -6.9884729e-08
ExecutionTime = 54.53 s  ClockTime = 59 s

Time = 4.6

Courant Number mean: 0.00055354777 max: 0.084891391
smoothSolver:  Solving for Ux, Initial residual = 0.0006580402, Final residual = 3.5684944e-08, No Iterations 1
smoothSolver:  Solving for Uy, Initial residual = 0.0010606918, Final residual = 6.0708255e-08, No Iterations 1
smoothSolver:  Solving for Uz, Initial residual = 0.00096573476, Final residual = 5.0604654e-08, No Iterations 1
DICPCG:  Solving for p, Initial residual = 0.0092299725, Final residual = 0.00034919693, No Iterations 2
DICPCG:  Solving for p, Initial residual = 0.0013123576, Final residual = 5.805048e-05, No Iterations 22
DICPCG:  Solving for p, Initial residual = 0.00042309887, Final residual = 1.9458444e-05, No Iterations 133
time step continuity errors : sum local = 7.134642e-11, global = 1.5914498e-13, cumulative = -6.988457e-08
DICPCG:  Solving for p, Initial residual = 0.00032239304, Final residual = 1.4883981e-05, No Iterations 6
DICPCG:  Solving for p, Initial residual = 8.5578066e-05, Final residual = 4.0454008e-06, No Iterations 28
DICPCG:  Solving for p, Initial residual = 3.9667852e-05, Final residual = 9.767447e-07, No Iterations 39
time step continuity errors : sum local = 3.577626e-12, global = 5.3707799e-13, cumulative = -6.9884033e-08
ExecutionTime = 55.38 s  ClockTime = 60 s

Time = 4.7

Courant Number mean: 0.00055356267 max: 0.084834063
smoothSolver:  Solving for Ux, Initial residual = 0.00064672865, Final residual = 3.5002952e-08, No Iterations 1
smoothSolver:  Solving for Uy, Initial residual = 0.0010428882, Final residual = 5.9861564e-08, No Iterations 1
smoothSolver:  Solving for Uz, Initial residual = 0.00094913889, Final residual = 4.9691523e-08, No Iterations 1
DICPCG:  Solving for p, Initial residual = 0.0089794091, Final residual = 0.0003405166, No Iterations 2
DICPCG:  Solving for p, Initial residual = 0.0012773355, Final residual = 5.7492538e-05, No Iterations 22
DICPCG:  Solving for p, Initial residual = 0.00043187069, Final residual = 2.0246113e-05, No Iterations 133
time step continuity errors : sum local = 7.3056133e-11, global = 1.2657819e-13, cumulative = -6.9883907e-08
DICPCG:  Solving for p, Initial residual = 0.00032711944, Final residual = 1.632483e-05, No Iterations 8
DICPCG:  Solving for p, Initial residual = 8.8595555e-05, Final residual = 4.2809323e-06, No Iterations 25
DICPCG:  Solving for p, Initial residual = 4.0372185e-05, Final residual = 9.8727855e-07, No Iterations 40
time step continuity errors : sum local = 3.5588498e-12, global = 4.7477427e-13, cumulative = -6.9883432e-08
ExecutionTime = 56.48 s  ClockTime = 61 s

Time = 4.8

Courant Number mean: 0.00055357737 max: 0.084777606
smoothSolver:  Solving for Ux, Initial residual = 0.00063592122, Final residual = 3.4183033e-08, No Iterations 1
smoothSolver:  Solving for Uy, Initial residual = 0.001026108, Final residual = 5.8976675e-08, No Iterations 1
smoothSolver:  Solving for Uz, Initial residual = 0.00093318652, Final residual = 4.8887097e-08, No Iterations 1
DICPCG:  Solving for p, Initial residual = 0.008792821, Final residual = 0.0003281618, No Iterations 2
DICPCG:  Solving for p, Initial residual = 0.0012390004, Final residual = 5.6599269e-05, No Iterations 22
DICPCG:  Solving for p, Initial residual = 0.00042243166, Final residual = 2.0085881e-05, No Iterations 133
time step continuity errors : sum local = 7.1360276e-11, global = 1.5115106e-13, cumulative = -6.9883281e-08
DICPCG:  Solving for p, Initial residual = 0.0003130552, Final residual = 1.3154783e-05, No Iterations 9
DICPCG:  Solving for p, Initial residual = 8.5994332e-05, Final residual = 4.2870908e-06, No Iterations 25
DICPCG:  Solving for p, Initial residual = 3.8757041e-05, Final residual = 9.5438199e-07, No Iterations 42
time step continuity errors : sum local = 3.3874065e-12, global = 4.2749718e-13, cumulative = -6.9882853e-08
ExecutionTime = 57.4 s  ClockTime = 62 s

Time = 4.9

Courant Number mean: 0.00055359237 max: 0.084722224
smoothSolver:  Solving for Ux, Initial residual = 0.00062567026, Final residual = 3.3501186e-08, No Iterations 1
smoothSolver:  Solving for Uy, Initial residual = 0.0010100571, Final residual = 5.8109024e-08, No Iterations 1
smoothSolver:  Solving for Uz, Initial residual = 0.00091786602, Final residual = 4.809958e-08, No Iterations 1
DICPCG:  Solving for p, Initial residual = 0.0085802979, Final residual = 0.00031900571, No Iterations 2
DICPCG:  Solving for p, Initial residual = 0.0011984884, Final residual = 5.6084324e-05, No Iterations 22
DICPCG:  Solving for p, Initial residual = 0.00040655677, Final residual = 1.9299488e-05, No Iterations 133
time step continuity errors : sum local = 6.7541335e-11, global = 9.675896e-14, cumulative = -6.9882756e-08
DICPCG:  Solving for p, Initial residual = 0.00030546021, Final residual = 1.5124049e-05, No Iterations 8
DICPCG:  Solving for p, Initial residual = 8.2711259e-05, Final residual = 3.8591557e-06, No Iterations 26
DICPCG:  Solving for p, Initial residual = 3.7793731e-05, Final residual = 9.6073965e-07, No Iterations 41
time step continuity errors : sum local = 3.3590319e-12, global = 3.7598368e-13, cumulative = -6.988238e-08
ExecutionTime = 58.49 s  ClockTime = 63 s

Time = 5

Courant Number mean: 0.00055360791 max: 0.084668025
smoothSolver:  Solving for Ux, Initial residual = 0.00061588679, Final residual = 3.2858721e-08, No Iterations 1
smoothSolver:  Solving for Uy, Initial residual = 0.000994702, Final residual = 5.728109e-08, No Iterations 1
smoothSolver:  Solving for Uz, Initial residual = 0.0009031651, Final residual = 4.724129e-08, No Iterations 1
DICPCG:  Solving for p, Initial residual = 0.0084949264, Final residual = 0.00031664797, No Iterations 2
DICPCG:  Solving for p, Initial residual = 0.0012173149, Final residual = 5.6081605e-05, No Iterations 22
DICPCG:  Solving for p, Initial residual = 0.00041986197, Final residual = 2.0018417e-05, No Iterations 133
time step continuity errors : sum local = 6.9020436e-11, global = 2.007744e-13, cumulative = -6.988218e-08
DICPCG:  Solving for p, Initial residual = 0.00030819587, Final residual = 1.3588592e-05, No Iterations 9
DICPCG:  Solving for p, Initial residual = 8.516271e-05, Final residual = 4.1246819e-06, No Iterations 27
DICPCG:  Solving for p, Initial residual = 4.0662807e-05, Final residual = 9.7451451e-07, No Iterations 43
time step continuity errors : sum local = 3.3568387e-12, global = 3.7801154e-13, cumulative = -6.9881802e-08
ExecutionTime = 59.65 s  ClockTime = 65 s

Time = 5.1

Courant Number mean: 0.00055362369 max: 0.084614826
smoothSolver:  Solving for Ux, Initial residual = 0.00060663326, Final residual = 3.2233677e-08, No Iterations 1
smoothSolver:  Solving for Uy, Initial residual = 0.00097975232, Final residual = 5.6464593e-08, No Iterations 1
smoothSolver:  Solving for Uz, Initial residual = 0.00088911146, Final residual = 4.6454354e-08, No Iterations 1
DICPCG:  Solving for p, Initial residual = 0.0082857438, Final residual = 0.00031247043, No Iterations 2
DICPCG:  Solving for p, Initial residual = 0.0011617853, Final residual = 5.5499896e-05, No Iterations 22
DICPCG:  Solving for p, Initial residual = 0.00039703151, Final residual = 1.9146863e-05, No Iterations 132
time step continuity errors : sum local = 6.5068584e-11, global = 1.3261066e-13, cumulative = -6.9881669e-08
DICPCG:  Solving for p, Initial residual = 0.0002915491, Final residual = 1.237295e-05, No Iterations 9
DICPCG:  Solving for p, Initial residual = 8.0783474e-05, Final residual = 3.8679958e-06, No Iterations 27
DICPCG:  Solving for p, Initial residual = 3.8053993e-05, Final residual = 9.2410666e-07, No Iterations 43
time step continuity errors : sum local = 3.1376595e-12, global = 3.4450357e-13, cumulative = -6.9881324e-08
ExecutionTime = 60.64 s  ClockTime = 66 s

Time = 5.2

Courant Number mean: 0.00055363941 max: 0.084562483
smoothSolver:  Solving for Ux, Initial residual = 0.00059770463, Final residual = 3.1603203e-08, No Iterations 1
smoothSolver:  Solving for Uy, Initial residual = 0.00096528529, Final residual = 5.5618023e-08, No Iterations 1
smoothSolver:  Solving for Uz, Initial residual = 0.00087549277, Final residual = 4.5684261e-08, No Iterations 1
DICPCG:  Solving for p, Initial residual = 0.0081204391, Final residual = 0.00030932015, No Iterations 2
DICPCG:  Solving for p, Initial residual = 0.0011377508, Final residual = 5.2491727e-05, No Iterations 22
DICPCG:  Solving for p, Initial residual = 0.00038397246, Final residual = 1.8355707e-05, No Iterations 131
time step continuity errors : sum local = 6.1509116e-11, global = 1.2636156e-13, cumulative = -6.9881198e-08
DICPCG:  Solving for p, Initial residual = 0.0002856949, Final residual = 1.3927383e-05, No Iterations 8
DICPCG:  Solving for p, Initial residual = 7.8324583e-05, Final residual = 3.9073026e-06, No Iterations 31
DICPCG:  Solving for p, Initial residual = 4.0009935e-05, Final residual = 9.3369939e-07, No Iterations 45
time step continuity errors : sum local = 3.1259969e-12, global = 3.8279394e-13, cumulative = -6.9880815e-08
ExecutionTime = 61.76 s  ClockTime = 67 s

Time = 5.3

Courant Number mean: 0.00055365526 max: 0.084511093
smoothSolver:  Solving for Ux, Initial residual = 0.00058900861, Final residual = 3.1079059e-08, No Iterations 1
smoothSolver:  Solving for Uy, Initial residual = 0.00095131992, Final residual = 5.4904623e-08, No Iterations 1
smoothSolver:  Solving for Uz, Initial residual = 0.00086251309, Final residual = 4.4954137e-08, No Iterations 1
DICPCG:  Solving for p, Initial residual = 0.0080442084, Final residual = 0.00031861247, No Iterations 2
DICPCG:  Solving for p, Initial residual = 0.001135346, Final residual = 5.334919e-05, No Iterations 22
DICPCG:  Solving for p, Initial residual = 0.0003897025, Final residual = 1.8813261e-05, No Iterations 131
time step continuity errors : sum local = 6.2175302e-11, global = 6.1843474e-14, cumulative = -6.9880753e-08
DICPCG:  Solving for p, Initial residual = 0.00028965753, Final residual = 1.4131429e-05, No Iterations 8
DICPCG:  Solving for p, Initial residual = 8.004073e-05, Final residual = 3.8514185e-06, No Iterations 31
DICPCG:  Solving for p, Initial residual = 4.0871207e-05, Final residual = 8.9147848e-07, No Iterations 46
time step continuity errors : sum local = 2.9435978e-12, global = 3.9868641e-13, cumulative = -6.9880355e-08
ExecutionTime = 62.79 s  ClockTime = 68 s

Time = 5.4

Courant Number mean: 0.00055367112 max: 0.08445998
smoothSolver:  Solving for Ux, Initial residual = 0.00058063618, Final residual = 3.0554638e-08, No Iterations 1
smoothSolver:  Solving for Uy, Initial residual = 0.0009377649, Final residual = 5.3954145e-08, No Iterations 1
smoothSolver:  Solving for Uz, Initial residual = 0.00085001098, Final residual = 4.426848e-08, No Iterations 1
DICPCG:  Solving for p, Initial residual = 0.0077922924, Final residual = 0.00030817078, No Iterations 2
DICPCG:  Solving for p, Initial residual = 0.0010764584, Final residual = 5.1823265e-05, No Iterations 23
DICPCG:  Solving for p, Initial residual = 0.00038742842, Final residual = 1.889319e-05, No Iterations 132
time step continuity errors : sum local = 6.1613602e-11, global = -4.8680747e-15, cumulative = -6.988036e-08
DICPCG:  Solving for p, Initial residual = 0.00028508826, Final residual = 1.4026473e-05, No Iterations 6
DICPCG:  Solving for p, Initial residual = 7.647163e-05, Final residual = 3.6165667e-06, No Iterations 30
DICPCG:  Solving for p, Initial residual = 3.8708153e-05, Final residual = 9.8570463e-07, No Iterations 42
time step continuity errors : sum local = 3.2117164e-12, global = 2.6678246e-13, cumulative = -6.9880093e-08
ExecutionTime = 63.91 s  ClockTime = 69 s

Time = 5.5

Courant Number mean: 0.00055368715 max: 0.084409684
smoothSolver:  Solving for Ux, Initial residual = 0.00057264427, Final residual = 3.0035738e-08, No Iterations 1
smoothSolver:  Solving for Uy, Initial residual = 0.00092499579, Final residual = 5.3185303e-08, No Iterations 1
smoothSolver:  Solving for Uz, Initial residual = 0.00083812296, Final residual = 4.361758e-08, No Iterations 1
DICPCG:  Solving for p, Initial residual = 0.0076695678, Final residual = 0.00030617964, No Iterations 2
DICPCG:  Solving for p, Initial residual = 0.0010620232, Final residual = 5.0908678e-05, No Iterations 23
DICPCG:  Solving for p, Initial residual = 0.00038607606, Final residual = 1.8476633e-05, No Iterations 133
time step continuity errors : sum local = 5.9477823e-11, global = -3.0168059e-15, cumulative = -6.9880096e-08
DICPCG:  Solving for p, Initial residual = 0.0002820269, Final residual = 1.379163e-05, No Iterations 6
DICPCG:  Solving for p, Initial residual = 7.5743117e-05, Final residual = 3.488964e-06, No Iterations 29
DICPCG:  Solving for p, Initial residual = 3.6952628e-05, Final residual = 9.463532e-07, No Iterations 39
time step continuity errors : sum local = 3.0437654e-12, global = 2.6611154e-13, cumulative = -6.987983e-08
ExecutionTime = 65.3 s  ClockTime = 71 s

Time = 5.6

Courant Number mean: 0.0005537033 max: 0.084360412
smoothSolver:  Solving for Ux, Initial residual = 0.00056491275, Final residual = 2.95585e-08, No Iterations 1
smoothSolver:  Solving for Uy, Initial residual = 0.00091268457, Final residual = 5.2348688e-08, No Iterations 1
smoothSolver:  Solving for Uz, Initial residual = 0.00082669242, Final residual = 4.295047e-08, No Iterations 1
DICPCG:  Solving for p, Initial residual = 0.00762018, Final residual = 0.00031204152, No Iterations 2
DICPCG:  Solving for p, Initial residual = 0.0010698243, Final residual = 5.2699482e-05, No Iterations 22
DICPCG:  Solving for p, Initial residual = 0.00038763906, Final residual = 1.8589321e-05, No Iterations 132
time step continuity errors : sum local = 5.9080962e-11, global = 1.4256525e-13, cumulative = -6.9879687e-08
DICPCG:  Solving for p, Initial residual = 0.00027158082, Final residual = 1.1823694e-05, No Iterations 9
DICPCG:  Solving for p, Initial residual = 7.6893215e-05, Final residual = 3.7983018e-06, No Iterations 28
DICPCG:  Solving for p, Initial residual = 3.9775026e-05, Final residual = 9.7224933e-07, No Iterations 45
time step continuity errors : sum local = 3.0875905e-12, global = 2.8400243e-13, cumulative = -6.9879403e-08
ExecutionTime = 66.48 s  ClockTime = 72 s

Time = 5.7

Courant Number mean: 0.00055371967 max: 0.084312448
smoothSolver:  Solving for Ux, Initial residual = 0.00055744316, Final residual = 2.9047862e-08, No Iterations 1
smoothSolver:  Solving for Uy, Initial residual = 0.00090081732, Final residual = 5.1471544e-08, No Iterations 1
smoothSolver:  Solving for Uz, Initial residual = 0.00081565363, Final residual = 4.2281808e-08, No Iterations 1
DICPCG:  Solving for p, Initial residual = 0.0073901313, Final residual = 0.00030651349, No Iterations 2
DICPCG:  Solving for p, Initial residual = 0.0010294094, Final residual = 4.890061e-05, No Iterations 22
DICPCG:  Solving for p, Initial residual = 0.00036667055, Final residual = 1.7385707e-05, No Iterations 130
time step continuity errors : sum local = 5.4580824e-11, global = 1.878172e-13, cumulative = -6.9879215e-08
DICPCG:  Solving for p, Initial residual = 0.00025382313, Final residual = 1.0943879e-05, No Iterations 9
DICPCG:  Solving for p, Initial residual = 7.1641133e-05, Final residual = 3.5598518e-06, No Iterations 30
DICPCG:  Solving for p, Initial residual = 3.9521825e-05, Final residual = 9.642438e-07, No Iterations 45
time step continuity errors : sum local = 3.0248839e-12, global = 2.7946467e-13, cumulative = -6.9878936e-08
ExecutionTime = 67.67 s  ClockTime = 74 s

Time = 5.8

Courant Number mean: 0.00055373627 max: 0.084265943
smoothSolver:  Solving for Ux, Initial residual = 0.00055037197, Final residual = 2.8496932e-08, No Iterations 1
smoothSolver:  Solving for Uy, Initial residual = 0.00088924064, Final residual = 5.0611841e-08, No Iterations 1
smoothSolver:  Solving for Uz, Initial residual = 0.00080472816, Final residual = 4.1562988e-08, No Iterations 1
DICPCG:  Solving for p, Initial residual = 0.0073505085, Final residual = 0.00031041763, No Iterations 2
DICPCG:  Solving for p, Initial residual = 0.00104863, Final residual = 5.1122054e-05, No Iterations 21
DICPCG:  Solving for p, Initial residual = 0.00037558794, Final residual = 1.8776737e-05, No Iterations 132
time step continuity errors : sum local = 5.8243296e-11, global = 1.9775375e-13, cumulative = -6.9878738e-08
DICPCG:  Solving for p, Initial residual = 0.00025553473, Final residual = 1.1566663e-05, No Iterations 9
DICPCG:  Solving for p, Initial residual = 7.2890074e-05, Final residual = 3.5631455e-06, No Iterations 27
DICPCG:  Solving for p, Initial residual = 3.8089261e-05, Final residual = 9.3057797e-07, No Iterations 44
time step continuity errors : sum local = 2.8844425e-12, global = 3.5297814e-13, cumulative = -6.9878385e-08
ExecutionTime = 68.85 s  ClockTime = 75 s

Time = 5.9

Courant Number mean: 0.00055375306 max: 0.084220909
smoothSolver:  Solving for Ux, Initial residual = 0.00054373203, Final residual = 2.7917367e-08, No Iterations 1
smoothSolver:  Solving for Uy, Initial residual = 0.00087780115, Final residual = 4.9739705e-08, No Iterations 1
smoothSolver:  Solving for Uz, Initial residual = 0.0007940577, Final residual = 4.0747213e-08, No Iterations 1
DICPCG:  Solving for p, Initial residual = 0.0071980146, Final residual = 0.00029897291, No Iterations 2
DICPCG:  Solving for p, Initial residual = 0.0010245752, Final residual = 4.7875964e-05, No Iterations 22
DICPCG:  Solving for p, Initial residual = 0.00036531943, Final residual = 1.7644027e-05, No Iterations 131
time step continuity errors : sum local = 5.4094495e-11, global = 2.1754448e-13, cumulative = -6.9878168e-08
DICPCG:  Solving for p, Initial residual = 0.0002518899, Final residual = 1.1046654e-05, No Iterations 9
DICPCG:  Solving for p, Initial residual = 7.0813298e-05, Final residual = 3.371291e-06, No Iterations 29
DICPCG:  Solving for p, Initial residual = 3.8193251e-05, Final residual = 9.0917886e-07, No Iterations 45
time step continuity errors : sum local = 2.7853967e-12, global = 3.3548967e-13, cumulative = -6.9877832e-08
ExecutionTime = 70.07 s  ClockTime = 77 s

Time = 6

Courant Number mean: 0.00055376988 max: 0.084177302
smoothSolver:  Solving for Ux, Initial residual = 0.00053718141, Final residual = 2.7392968e-08, No Iterations 1
smoothSolver:  Solving for Uy, Initial residual = 0.0008670001, Final residual = 4.8973409e-08, No Iterations 1
smoothSolver:  Solving for Uz, Initial residual = 0.00078391575, Final residual = 4.0087937e-08, No Iterations 1
DICPCG:  Solving for p, Initial residual = 0.0070204752, Final residual = 0.00031663988, No Iterations 2
DICPCG:  Solving for p, Initial residual = 0.0010066133, Final residual = 4.9598666e-05, No Iterations 22
DICPCG:  Solving for p, Initial residual = 0.00036845792, Final residual = 1.7448747e-05, No Iterations 129
time step continuity errors : sum local = 5.2891014e-11, global = 2.1613024e-13, cumulative = -6.9877616e-08
DICPCG:  Solving for p, Initial residual = 0.00025460213, Final residual = 1.1502144e-05, No Iterations 9
DICPCG:  Solving for p, Initial residual = 7.1727194e-05, Final residual = 3.4989345e-06, No Iterations 33
DICPCG:  Solving for p, Initial residual = 4.2107592e-05, Final residual = 9.3245439e-07, No Iterations 46
time step continuity errors : sum local = 2.8244088e-12, global = 3.3328391e-13, cumulative = -6.9877283e-08
ExecutionTime = 71.59 s  ClockTime = 78 s

Time = 6.1

Courant Number mean: 0.00055378681 max: 0.084135088
smoothSolver:  Solving for Ux, Initial residual = 0.00053091382, Final residual = 2.6881233e-08, No Iterations 1
smoothSolver:  Solving for Uy, Initial residual = 0.00085657954, Final residual = 4.815985e-08, No Iterations 1
smoothSolver:  Solving for Uz, Initial residual = 0.00077409683, Final residual = 3.9433365e-08, No Iterations 1
DICPCG:  Solving for p, Initial residual = 0.0069072154, Final residual = 0.00031650166, No Iterations 2
DICPCG:  Solving for p, Initial residual = 0.0010030147, Final residual = 4.7597999e-05, No Iterations 22
DICPCG:  Solving for p, Initial residual = 0.00036782288, Final residual = 1.8021981e-05, No Iterations 123
time step continuity errors : sum local = 5.4028069e-11, global = 1.6110538e-13, cumulative = -6.9877122e-08
DICPCG:  Solving for p, Initial residual = 0.00025262484, Final residual = 1.168685e-05, No Iterations 9
[...]
DICPCG:  Solving for p, Initial residual = 5.1887035e-05, Final residual = 2.1756167e-06, No Iterations 5
DICPCG:  Solving for p, Initial residual = 1.3843705e-05, Final residual = 9.4105273e-07, No Iterations 11
time step continuity errors : sum local = 1.607295e-12, global = 1.2593643e-14, cumulative = -6.9319511e-08
ExecutionTime = 178.03 s  ClockTime = 190 s

Time = 18.6

Courant Number mean: 0.0005572445 max: 0.086616832
smoothSolver:  Solving for Ux, Initial residual = 0.00028949782, Final residual = 7.5034417e-09, No Iterations 1
smoothSolver:  Solving for Uy, Initial residual = 0.00043787614, Final residual = 1.2757647e-08, No Iterations 1
smoothSolver:  Solving for Uz, Initial residual = 0.00040309385, Final residual = 1.1115374e-08, No Iterations 1
DICPCG:  Solving for p, Initial residual = 0.0022389081, Final residual = 0.00011103927, No Iterations 2
DICPCG:  Solving for p, Initial residual = 0.00037570751, Final residual = 1.8329005e-05, No Iterations 13
DICPCG:  Solving for p, Initial residual = 0.0001341827, Final residual = 6.410845e-06, No Iterations 21
time step continuity errors : sum local = 1.092889e-11, global = 3.7021349e-12, cumulative = -6.9315809e-08
DICPCG:  Solving for p, Initial residual = 5.4990287e-05, Final residual = 2.7346972e-06, No Iterations 128
DICPCG:  Solving for p, Initial residual = 4.9125503e-05, Final residual = 2.1921842e-06, No Iterations 5
DICPCG:  Solving for p, Initial residual = 1.2962353e-05, Final residual = 9.5844014e-07, No Iterations 10
time step continuity errors : sum local = 1.6336612e-12, global = 2.2448186e-14, cumulative = -6.9315786e-08
ExecutionTime = 178.75 s  ClockTime = 191 s

Time = 18.7

Courant Number mean: 0.00055728091 max: 0.086624234
smoothSolver:  Solving for Ux, Initial residual = 0.00028889711, Final residual = 7.4509514e-09, No Iterations 1
smoothSolver:  Solving for Uy, Initial residual = 0.00043682623, Final residual = 1.2698926e-08, No Iterations 1
smoothSolver:  Solving for Uz, Initial residual = 0.00040216584, Final residual = 1.1052004e-08, No Iterations 1
DICPCG:  Solving for p, Initial residual = 0.0021577015, Final residual = 8.9038183e-05, No Iterations 2
DICPCG:  Solving for p, Initial residual = 0.00034019368, Final residual = 1.5451678e-05, No Iterations 14
DICPCG:  Solving for p, Initial residual = 0.00011586203, Final residual = 5.7782099e-06, No Iterations 126
time step continuity errors : sum local = 9.8325879e-12, global = 2.4272645e-14, cumulative = -6.9315762e-08
DICPCG:  Solving for p, Initial residual = 6.7099125e-05, Final residual = 2.9158264e-06, No Iterations 10
DICPCG:  Solving for p, Initial residual = 2.051979e-05, Final residual = 1.0075069e-06, No Iterations 34
DICPCG:  Solving for p, Initial residual = 1.2486172e-05, Final residual = 9.5103946e-07, No Iterations 3
time step continuity errors : sum local = 1.618128e-12, global = 1.0067087e-13, cumulative = -6.9315661e-08
ExecutionTime = 179.5 s  ClockTime = 192 s

Time = 18.8

Courant Number mean: 0.00055731733 max: 0.086631057
smoothSolver:  Solving for Ux, Initial residual = 0.00028833769, Final residual = 7.4037035e-09, No Iterations 1
smoothSolver:  Solving for Uy, Initial residual = 0.00043580146, Final residual = 1.2647253e-08, No Iterations 1
smoothSolver:  Solving for Uz, Initial residual = 0.00040130373, Final residual = 1.099577e-08, No Iterations 1
DICPCG:  Solving for p, Initial residual = 0.0021203566, Final residual = 8.7274399e-05, No Iterations 2
DICPCG:  Solving for p, Initial residual = 0.00033109505, Final residual = 1.5765521e-05, No Iterations 14
DICPCG:  Solving for p, Initial residual = 0.00011458456, Final residual = 5.5225844e-06, No Iterations 119
time step continuity errors : sum local = 9.3811617e-12, global = 1.3411487e-15, cumulative = -6.931566e-08
DICPCG:  Solving for p, Initial residual = 6.3861939e-05, Final residual = 3.181492e-06, No Iterations 9
DICPCG:  Solving for p, Initial residual = 1.9957288e-05, Final residual = 9.5996909e-07, No Iterations 31
DICPCG:  Solving for p, Initial residual = 1.1660352e-05, Final residual = 8.3639715e-07, No Iterations 4
time step continuity errors : sum local = 1.4205769e-12, global = 8.9337762e-14, cumulative = -6.9315571e-08
ExecutionTime = 180.23 s  ClockTime = 193 s

Time = 18.9

Courant Number mean: 0.00055735391 max: 0.086637314
smoothSolver:  Solving for Ux, Initial residual = 0.00028768498, Final residual = 7.3503377e-09, No Iterations 1
smoothSolver:  Solving for Uy, Initial residual = 0.0004347693, Final residual = 1.2598655e-08, No Iterations 1
smoothSolver:  Solving for Uz, Initial residual = 0.00040043687, Final residual = 1.0940691e-08, No Iterations 1
DICPCG:  Solving for p, Initial residual = 0.0021878995, Final residual = 0.00010168991, No Iterations 2
DICPCG:  Solving for p, Initial residual = 0.00035757004, Final residual = 1.6275391e-05, No Iterations 15
DICPCG:  Solving for p, Initial residual = 0.00013799405, Final residual = 6.3967497e-06, No Iterations 10
time step continuity errors : sum local = 1.084564e-11, global = 3.4494747e-12, cumulative = -6.9312121e-08
DICPCG:  Solving for p, Initial residual = 4.84443e-05, Final residual = 2.4107359e-06, No Iterations 138
DICPCG:  Solving for p, Initial residual = 4.8635575e-05, Final residual = 1.9892756e-06, No Iterations 5
DICPCG:  Solving for p, Initial residual = 1.2807222e-05, Final residual = 9.2329457e-07, No Iterations 10
time step continuity errors : sum local = 1.5652215e-12, global = 1.3940514e-14, cumulative = -6.9312107e-08
ExecutionTime = 180.94 s  ClockTime = 193 s

Time = 19

Courant Number mean: 0.00055739061 max: 0.086643013
smoothSolver:  Solving for Ux, Initial residual = 0.00028699113, Final residual = 7.302079e-09, No Iterations 1
smoothSolver:  Solving for Uy, Initial residual = 0.00043368227, Final residual = 1.2546717e-08, No Iterations 1
smoothSolver:  Solving for Uz, Initial residual = 0.0003996518, Final residual = 1.0884254e-08, No Iterations 1
DICPCG:  Solving for p, Initial residual = 0.0021879941, Final residual = 9.2745018e-05, No Iterations 2
DICPCG:  Solving for p, Initial residual = 0.00035234565, Final residual = 1.5912811e-05, No Iterations 14
DICPCG:  Solving for p, Initial residual = 0.00012572852, Final residual = 6.1250373e-06, No Iterations 121
time step continuity errors : sum local = 1.0366522e-11, global = 3.660443e-14, cumulative = -6.931207e-08
DICPCG:  Solving for p, Initial residual = 6.8330161e-05, Final residual = 3.1370239e-06, No Iterations 10
DICPCG:  Solving for p, Initial residual = 2.1540172e-05, Final residual = 1.0699509e-06, No Iterations 33
DICPCG:  Solving for p, Initial residual = 1.5958565e-05, Final residual = 9.0889516e-07, No Iterations 4
time step continuity errors : sum local = 1.5380732e-12, global = 1.1861506e-13, cumulative = -6.9311952e-08
ExecutionTime = 181.87 s  ClockTime = 194 s

Time = 19.1

Courant Number mean: 0.00055742734 max: 0.086648143
smoothSolver:  Solving for Ux, Initial residual = 0.00028637424, Final residual = 7.2541108e-09, No Iterations 1
smoothSolver:  Solving for Uy, Initial residual = 0.00043268819, Final residual = 1.2503932e-08, No Iterations 1
smoothSolver:  Solving for Uz, Initial residual = 0.00039889027, Final residual = 1.0813003e-08, No Iterations 1
DICPCG:  Solving for p, Initial residual = 0.0021635085, Final residual = 0.00010130479, No Iterations 2
DICPCG:  Solving for p, Initial residual = 0.00035405469, Final residual = 1.7391833e-05, No Iterations 20
DICPCG:  Solving for p, Initial residual = 0.00013985513, Final residual = 6.1247527e-06, No Iterations 12
time step continuity errors : sum local = 1.034661e-11, global = 4.223964e-12, cumulative = -6.9307728e-08
DICPCG:  Solving for p, Initial residual = 5.158864e-05, Final residual = 2.5677182e-06, No Iterations 139
DICPCG:  Solving for p, Initial residual = 5.4838082e-05, Final residual = 2.5594449e-06, No Iterations 4
DICPCG:  Solving for p, Initial residual = 1.4435323e-05, Final residual = 9.2468045e-07, No Iterations 9
time step continuity errors : sum local = 1.5618093e-12, global = 4.1355049e-14, cumulative = -6.9307687e-08
ExecutionTime = 182.62 s  ClockTime = 195 s

Time = 19.2

Courant Number mean: 0.00055746401 max: 0.086652736
smoothSolver:  Solving for Ux, Initial residual = 0.00028565156, Final residual = 7.207901e-09, No Iterations 1
smoothSolver:  Solving for Uy, Initial residual = 0.00043163961, Final residual = 1.2465261e-08, No Iterations 1
smoothSolver:  Solving for Uz, Initial residual = 0.00039807446, Final residual = 1.0742619e-08, No Iterations 1
DICPCG:  Solving for p, Initial residual = 0.002219249, Final residual = 8.0983383e-05, No Iterations 3
DICPCG:  Solving for p, Initial residual = 0.00039231711, Final residual = 1.9285569e-05, No Iterations 14
DICPCG:  Solving for p, Initial residual = 0.00014645522, Final residual = 7.2549766e-06, No Iterations 18
time step continuity errors : sum local = 1.2231802e-11, global = 3.432742e-12, cumulative = -6.9304254e-08
DICPCG:  Solving for p, Initial residual = 5.6901198e-05, Final residual = 2.8097228e-06, No Iterations 137
DICPCG:  Solving for p, Initial residual = 4.608476e-05, Final residual = 2.2207054e-06, No Iterations 5
DICPCG:  Solving for p, Initial residual = 1.2453794e-05, Final residual = 9.8616418e-07, No Iterations 9
time step continuity errors : sum local = 1.6624467e-12, global = 3.2365575e-14, cumulative = -6.9304221e-08
ExecutionTime = 183.34 s  ClockTime = 196 s

Time = 19.3

Courant Number mean: 0.00055750122 max: 0.08665682
smoothSolver:  Solving for Ux, Initial residual = 0.00028503106, Final residual = 7.1621241e-09, No Iterations 1
smoothSolver:  Solving for Uy, Initial residual = 0.00043055848, Final residual = 1.2428355e-08, No Iterations 1
smoothSolver:  Solving for Uz, Initial residual = 0.00039755764, Final residual = 1.0678249e-08, No Iterations 1
DICPCG:  Solving for p, Initial residual = 0.0022209502, Final residual = 8.4410114e-05, No Iterations 3
DICPCG:  Solving for p, Initial residual = 0.00042421729, Final residual = 1.9825618e-05, No Iterations 17
DICPCG:  Solving for p, Initial residual = 0.00017275896, Final residual = 8.2194448e-06, No Iterations 11
time step continuity errors : sum local = 1.3832691e-11, global = 4.2981441e-12, cumulative = -6.9299923e-08
DICPCG:  Solving for p, Initial residual = 6.1741648e-05, Final residual = 2.9894606e-06, No Iterations 145
DICPCG:  Solving for p, Initial residual = 6.1705069e-05, Final residual = 2.997774e-06, No Iterations 5
DICPCG:  Solving for p, Initial residual = 1.6704031e-05, Final residual = 9.363555e-07, No Iterations 10
time step continuity errors : sum local = 1.5755468e-12, global = 2.4113256e-14, cumulative = -6.9299899e-08
ExecutionTime = 184.09 s  ClockTime = 197 s

Time = 19.4

Courant Number mean: 0.00055753858 max: 0.08666039
smoothSolver:  Solving for Ux, Initial residual = 0.00028429376, Final residual = 7.1192456e-09, No Iterations 1
smoothSolver:  Solving for Uy, Initial residual = 0.00042972064, Final residual = 1.2388568e-08, No Iterations 1
smoothSolver:  Solving for Uz, Initial residual = 0.00039657197, Final residual = 1.0604172e-08, No Iterations 1
DICPCG:  Solving for p, Initial residual = 0.0021667637, Final residual = 7.4953427e-05, No Iterations 3
DICPCG:  Solving for p, Initial residual = 0.00038319582, Final residual = 1.7032573e-05, No Iterations 14
DICPCG:  Solving for p, Initial residual = 0.00013405476, Final residual = 6.6767007e-06, No Iterations 9
time step continuity errors : sum local = 1.1215862e-11, global = 3.7076487e-12, cumulative = -6.9296192e-08
DICPCG:  Solving for p, Initial residual = 4.7821562e-05, Final residual = 2.2836614e-06, No Iterations 143
DICPCG:  Solving for p, Initial residual = 5.2913577e-05, Final residual = 2.3775913e-06, No Iterations 5
DICPCG:  Solving for p, Initial residual = 1.3969454e-05, Final residual = 8.5912091e-07, No Iterations 9
time step continuity errors : sum local = 1.4429713e-12, global = 4.0150084e-14, cumulative = -6.9296151e-08
ExecutionTime = 184.8 s  ClockTime = 197 s

Time = 19.5

Courant Number mean: 0.00055757593 max: 0.086663456
smoothSolver:  Solving for Ux, Initial residual = 0.00028368112, Final residual = 7.0768049e-09, No Iterations 1
smoothSolver:  Solving for Uy, Initial residual = 0.00042882594, Final residual = 1.2342351e-08, No Iterations 1
smoothSolver:  Solving for Uz, Initial residual = 0.00039568758, Final residual = 1.0532698e-08, No Iterations 1
DICPCG:  Solving for p, Initial residual = 0.0021247147, Final residual = 9.3675902e-05, No Iterations 2
DICPCG:  Solving for p, Initial residual = 0.00035419478, Final residual = 1.6666669e-05, No Iterations 11
DICPCG:  Solving for p, Initial residual = 0.00012282209, Final residual = 5.9323677e-06, No Iterations 114
time step continuity errors : sum local = 9.947693e-12, global = 7.5464207e-15, cumulative = -6.9296144e-08
DICPCG:  Solving for p, Initial residual = 6.6128051e-05, Final residual = 3.0915004e-06, No Iterations 6
DICPCG:  Solving for p, Initial residual = 1.9032992e-05, Final residual = 9.740159e-07, No Iterations 52
DICPCG:  Solving for p, Initial residual = 1.5626943e-05, Final residual = 7.4243764e-07, No Iterations 4
time step continuity errors : sum local = 1.2447588e-12, global = 1.1216954e-13, cumulative = -6.9296032e-08
ExecutionTime = 185.81 s  ClockTime = 198 s

Time = 19.6

Courant Number mean: 0.00055761331 max: 0.086666032
smoothSolver:  Solving for Ux, Initial residual = 0.00028307491, Final residual = 7.0356897e-09, No Iterations 1
smoothSolver:  Solving for Uy, Initial residual = 0.00042795635, Final residual = 1.2288679e-08, No Iterations 1
smoothSolver:  Solving for Uz, Initial residual = 0.0003949554, Final residual = 1.0456263e-08, No Iterations 1
DICPCG:  Solving for p, Initial residual = 0.0021265816, Final residual = 8.9905655e-05, No Iterations 2
DICPCG:  Solving for p, Initial residual = 0.00035217284, Final residual = 1.7216532e-05, No Iterations 11
DICPCG:  Solving for p, Initial residual = 0.00012004696, Final residual = 5.9715106e-06, No Iterations 117
time step continuity errors : sum local = 9.9959572e-12, global = -2.7291632e-14, cumulative = -6.9296059e-08
DICPCG:  Solving for p, Initial residual = 6.8088186e-05, Final residual = 3.0625332e-06, No Iterations 6
DICPCG:  Solving for p, Initial residual = 1.9288744e-05, Final residual = 9.7430481e-07, No Iterations 52
DICPCG:  Solving for p, Initial residual = 1.517544e-05, Final residual = 7.3454129e-07, No Iterations 4
time step continuity errors : sum local = 1.229369e-12, global = 1.1001957e-13, cumulative = -6.9295949e-08
ExecutionTime = 186.6 s  ClockTime = 199 s

Time = 19.7

Courant Number mean: 0.0005576506 max: 0.086668133
smoothSolver:  Solving for Ux, Initial residual = 0.00028243131, Final residual = 6.9952637e-09, No Iterations 1
smoothSolver:  Solving for Uy, Initial residual = 0.00042708104, Final residual = 1.2252011e-08, No Iterations 1
smoothSolver:  Solving for Uz, Initial residual = 0.00039418826, Final residual = 1.0393728e-08, No Iterations 1
DICPCG:  Solving for p, Initial residual = 0.0021203066, Final residual = 8.6133536e-05, No Iterations 2
DICPCG:  Solving for p, Initial residual = 0.0003391447, Final residual = 1.5358727e-05, No Iterations 14
DICPCG:  Solving for p, Initial residual = 0.00012805448, Final residual = 6.3327516e-06, No Iterations 17
time step continuity errors : sum local = 1.0581352e-11, global = 3.9863602e-12, cumulative = -6.9291963e-08
DICPCG:  Solving for p, Initial residual = 5.1890173e-05, Final residual = 2.4812272e-06, No Iterations 129
DICPCG:  Solving for p, Initial residual = 5.1938439e-05, Final residual = 2.4825754e-06, No Iterations 4
DICPCG:  Solving for p, Initial residual = 1.3970888e-05, Final residual = 9.1684908e-07, No Iterations 10
time step continuity errors : sum local = 1.5317228e-12, global = 2.4566856e-14, cumulative = -6.9291938e-08
ExecutionTime = 187.3 s  ClockTime = 200 s

Time = 19.8

Courant Number mean: 0.00055768793 max: 0.086669788
smoothSolver:  Solving for Ux, Initial residual = 0.00028188082, Final residual = 6.9546837e-09, No Iterations 1
smoothSolver:  Solving for Uy, Initial residual = 0.00042614771, Final residual = 1.2213392e-08, No Iterations 1
smoothSolver:  Solving for Uz, Initial residual = 0.00039337209, Final residual = 1.0328885e-08, No Iterations 1
DICPCG:  Solving for p, Initial residual = 0.0021116196, Final residual = 7.8908362e-05, No Iterations 2
DICPCG:  Solving for p, Initial residual = 0.00033449978, Final residual = 1.5236687e-05, No Iterations 14
DICPCG:  Solving for p, Initial residual = 0.00012136347, Final residual = 5.6399548e-06, No Iterations 10
time step continuity errors : sum local = 9.407169e-12, global = 3.3373888e-12, cumulative = -6.9288601e-08
DICPCG:  Solving for p, Initial residual = 4.4048274e-05, Final residual = 2.1273757e-06, No Iterations 139
DICPCG:  Solving for p, Initial residual = 4.45237e-05, Final residual = 2.0105304e-06, No Iterations 5
DICPCG:  Solving for p, Initial residual = 1.2356457e-05, Final residual = 9.5407251e-07, No Iterations 5
time step continuity errors : sum local = 1.591124e-12, global = 6.7205367e-14, cumulative = -6.9288533e-08
ExecutionTime = 188.01 s  ClockTime = 201 s

Time = 19.9

Courant Number mean: 0.00055772534 max: 0.086670827
smoothSolver:  Solving for Ux, Initial residual = 0.0002812811, Final residual = 6.9161973e-09, No Iterations 1
smoothSolver:  Solving for Uy, Initial residual = 0.00042516774, Final residual = 1.2176691e-08, No Iterations 1
smoothSolver:  Solving for Uz, Initial residual = 0.00039241318, Final residual = 1.0264593e-08, No Iterations 1
DICPCG:  Solving for p, Initial residual = 0.0020214308, Final residual = 9.0300106e-05, No Iterations 2
DICPCG:  Solving for p, Initial residual = 0.00032692571, Final residual = 1.5048264e-05, No Iterations 13
DICPCG:  Solving for p, Initial residual = 0.00012096974, Final residual = 5.8209914e-06, No Iterations 15
time step continuity errors : sum local = 9.6932794e-12, global = 3.6068728e-12, cumulative = -6.9284927e-08
DICPCG:  Solving for p, Initial residual = 4.7295769e-05, Final residual = 2.2711783e-06, No Iterations 121
DICPCG:  Solving for p, Initial residual = 4.5581093e-05, Final residual = 2.1191806e-06, No Iterations 5
DICPCG:  Solving for p, Initial residual = 1.2511496e-05, Final residual = 9.8900956e-07, No Iterations 9
time step continuity errors : sum local = 1.6466988e-12, global = 5.4992629e-14, cumulative = -6.9284872e-08
ExecutionTime = 188.69 s  ClockTime = 201 s

Time = 20

Courant Number mean: 0.00055776287 max: 0.086671297
smoothSolver:  Solving for Ux, Initial residual = 0.00028073553, Final residual = 6.8913026e-09, No Iterations 1
smoothSolver:  Solving for Uy, Initial residual = 0.00042425724, Final residual = 1.2193976e-08, No Iterations 1
smoothSolver:  Solving for Uz, Initial residual = 0.00039168634, Final residual = 1.0246091e-08, No Iterations 1
DICPCG:  Solving for p, Initial residual = 0.0021200102, Final residual = 0.0001038756, No Iterations 2
DICPCG:  Solving for p, Initial residual = 0.00034962505, Final residual = 1.6959943e-05, No Iterations 13
DICPCG:  Solving for p, Initial residual = 0.0001348096, Final residual = 6.1328088e-06, No Iterations 15
time step continuity errors : sum local = 1.0195764e-11, global = 2.4504895e-12, cumulative = -6.9282421e-08
DICPCG:  Solving for p, Initial residual = 5.337283e-05, Final residual = 2.5843842e-06, No Iterations 120
DICPCG:  Solving for p, Initial residual = 3.933923e-05, Final residual = 1.7128278e-06, No Iterations 6
DICPCG:  Solving for p, Initial residual = 1.1251419e-05, Final residual = 9.9566522e-07, No Iterations 13
time step continuity errors : sum local = 1.6551536e-12, global = 1.4224903e-15, cumulative = -6.928242e-08
ExecutionTime = 189.82 s  ClockTime = 203 s

End

Finalising parallel run
