/*---------------------------------------------------------------------------*\
  =========                 |
  \\      /  F ield         | OpenFOAM: The Open Source CFD Toolbox
   \\    /   O peration     | Website:  https://openfoam.org
    \\  /    A nd           | Version:  8
     \\/     M anipulation  |
\*---------------------------------------------------------------------------*/
Build  : 8-1c9b5879390b
Exec   : checkMesh
Date   : Nov 14 2021
Time   : 11:57:40
Host   : "pop-os"
PID    : 14154
I/O    : uncollated
Case   : /home/naimishbalaji/Desktop/Mini_Project/CFD-For-Ventilation-Analysis/simulations/icofoam_cases/3_branch_pair_shifted/case
nProcs : 1
sigFpe : Enabling floating point exception trapping (FOAM_SIGFPE).
fileModificationChecking : Monitoring run-time modified files using timeStampMaster (fileModificationSkew 10)
allowSystemOperations : Allowing user-supplied system call operations

// * * * * * * * * * * * * * * * * * * * * * * * * * * * * * * * * * * * * * //
Create time

Create polyMesh for time = 0

Time = 0

Mesh stats
    points:           121231
    faces:            316782
    internal faces:   294930
    cells:            101952
    faces per cell:   6
    boundary patches: 4
    point zones:      0
    face zones:       0
    cell zones:       1

Overall number of cells of each type:
    hexahedra:     101952
    prisms:        0
    wedges:        0
    pyramids:      0
    tet wedges:    0
    tetrahedra:    0
    polyhedra:     0

Checking topology...
    Boundary definition OK.
    Cell to face addressing OK.
    Point usage OK.
    Upper triangular ordering OK.
    Face vertices OK.
    Number of regions: 1 (OK).

Checking patch topology for multiply connected surfaces...
    Patch               Faces    Points   Surface topology                  
    wall                17934    18221    ok (non-closed singly connected)  
    surface             3774     4071     ok (non-closed singly connected)  
    inlet               96       124      ok (non-closed singly connected)  
    outlet              48       62       ok (non-closed singly connected)  

Checking geometry...
    Overall domain bounding box (0 0 0) (18288 12192 3962.4)
    Mesh has 3 geometric (non-empty/wedge) directions (1 1 1)
    Mesh has 3 solution (non-empty) directions (1 1 1)
    Boundary openness (-8.6270945e-17 5.1085682e-19 2.7234522e-16) OK.
    Max cell openness = 2.2646552e-16 OK.
    Max aspect ratio = 8.8565319 OK.
    Minimum face area = 2021.004. Maximum face area = 137968.46.  Face area magnitudes OK.
    Min volume = 412215.58. Max volume = 21902458.  Total volume = 6.4770177e+11.  Cell volumes OK.
    Mesh non-orthogonality Max: 75.596136 average: 26.481105
   *Number of severely non-orthogonal (> 70 degrees) faces: 738.
    Non-orthogonality check OK.
  <<Writing 738 non-orthogonal faces to set nonOrthoFaces
    Face pyramids OK.
    Max skewness = 1.1324437 OK.
    Coupled point location match (average 0) OK.

Mesh OK.

End

