/*---------------------------------------------------------------------------*\
  =========                 |
  \\      /  F ield         | OpenFOAM: The Open Source CFD Toolbox
   \\    /   O peration     | Website:  https://openfoam.org
    \\  /    A nd           | Version:  8
     \\/     M anipulation  |
\*---------------------------------------------------------------------------*/
Build  : 8-1c9b5879390b
Exec   : decomposePar
Date   : Nov 14 2021
Time   : 11:57:42
Host   : "pop-os"
PID    : 14159
I/O    : uncollated
Case   : /home/naimishbalaji/Desktop/Mini_Project/CFD-For-Ventilation-Analysis/simulations/icofoam_cases/3_branch_pair_shifted/case
nProcs : 1
sigFpe : Enabling floating point exception trapping (FOAM_SIGFPE).
fileModificationChecking : Monitoring run-time modified files using timeStampMaster (fileModificationSkew 10)
allowSystemOperations : Allowing user-supplied system call operations

// * * * * * * * * * * * * * * * * * * * * * * * * * * * * * * * * * * * * * //
Create time



Decomposing mesh region0

Create mesh

Calculating distribution of cells
Selecting decompositionMethod scotch

Finished decomposition in 0.15 s

Calculating original mesh data

Distributing cells to processors

Distributing faces to processors

Distributing points to processors

Constructing processor meshes

Processor 0
    Number of cells = 51032
    Number of faces shared with processor 1 = 750
    Number of processor patches = 1
    Number of processor faces = 750
    Number of boundary faces = 11280

Processor 1
    Number of cells = 50920
    Number of faces shared with processor 0 = 750
    Number of processor patches = 1
    Number of processor faces = 750
    Number of boundary faces = 10572

Number of processor faces = 750
Max number of cells = 51032 (0.10985562% above average 50976)
Max number of processor patches = 1 (0% above average 1)
Max number of faces between processors = 750 (0% above average 750)

Time = 0

Processor 0: field transfer
Processor 1: field transfer

End

