/*---------------------------------------------------------------------------*\
  =========                 |
  \\      /  F ield         | OpenFOAM: The Open Source CFD Toolbox
   \\    /   O peration     | Website:  https://openfoam.org
    \\  /    A nd           | Version:  8
     \\/     M anipulation  |
\*---------------------------------------------------------------------------*/
Build  : 8-1c9b5879390b
Exec   : gmshToFoam 3_branch.msh
Date   : Nov 14 2021
Time   : 11:57:38
Host   : "pop-os"
PID    : 14152
I/O    : uncollated
Case   : /home/naimishbalaji/Desktop/Mini_Project/CFD-For-Ventilation-Analysis/simulations/icofoam_cases/3_branch_pair_shifted/case
nProcs : 1
sigFpe : Enabling floating point exception trapping (FOAM_SIGFPE).
fileModificationChecking : Monitoring run-time modified files using timeStampMaster (fileModificationSkew 10)
allowSystemOperations : Allowing user-supplied system call operations

// * * * * * * * * * * * * * * * * * * * * * * * * * * * * * * * * * * * * * //
Create time

Starting to read mesh format at line 2
Read format version 2.2  ascii 0

Starting to read physical names at line 5
Physical names:5
    Surface 335	wall
    Surface 336	inlet
    Surface 337	outlet
    Surface 338	surface
    Volume 334	flow_field

Starting to read points at line 13
Vertices to be read:121231
Vertices read:121231

Starting to read cells at line 121247
Cells to be read:123804

Mapping region 335 to Foam patch 0
Mapping region 338 to Foam patch 1
Mapping region 336 to Foam patch 2
Mapping region 337 to Foam patch 3
Mapping region 334 to Foam cellZone 0
Cells:
    total:101952
    hex  :101952
    prism:0
    pyr  :0
    tet  :0

CellZones:
Zone	Size
    0	101952

Skipping tag  at line 245054
Patch 0 gets name wall
Patch 1 gets name surface
Patch 2 gets name inlet
Patch 3 gets name outlet

--> FOAM Warning : 
    From function Foam::polyMesh::polyMesh(const Foam::IOobject&, Foam::pointField&&, const cellShapeList&, const faceListList&, const wordList&, const wordList&, const Foam::word&, const Foam::word&, const wordList&, bool)
    in file meshes/polyMesh/polyMeshFromShapeMesh.C at line 595
    Found 21852 undefined faces in mesh; adding to default patch.
Finding faces of patch 0
Finding faces of patch 1
Finding faces of patch 2
Finding faces of patch 3

FaceZones:
Zone	Size

Writing zone 0 to cellZone flow_field and cellSet
End

