/*---------------------------------------------------------------------------*\
  =========                 |
  \\      /  F ield         | OpenFOAM: The Open Source CFD Toolbox
   \\    /   O peration     | Website:  https://openfoam.org
    \\  /    A nd           | Version:  8
     \\/     M anipulation  |
\*---------------------------------------------------------------------------*/
Build  : 8-1c9b5879390b
Exec   : icoFoam -parallel
Date   : Nov 14 2021
Time   : 11:57:45
Host   : "pop-os"
PID    : 14165
I/O    : uncollated
Case   : /home/naimishbalaji/Desktop/Mini_Project/CFD-For-Ventilation-Analysis/simulations/icofoam_cases/3_branch_pair_shifted/case
nProcs : 2
Slaves : 1("pop-os.14166")
Pstream initialized with:
    floatTransfer      : 0
    nProcsSimpleSum    : 0
    commsType          : nonBlocking
    polling iterations : 0
sigFpe : Enabling floating point exception trapping (FOAM_SIGFPE).
fileModificationChecking : Monitoring run-time modified files using timeStampMaster (fileModificationSkew 10)
allowSystemOperations : Allowing user-supplied system call operations

// * * * * * * * * * * * * * * * * * * * * * * * * * * * * * * * * * * * * * //
Create time

Create mesh for time = 0

Reading transportProperties

Reading field p

Reading field U

Reading/calculating face flux field phi


Starting time loop

Time = 0.1

Courant Number mean: 2.3408576e-06 max: 0.017692734
smoothSolver:  Solving for Ux, Initial residual = 0, Final residual = 0, No Iterations 0
smoothSolver:  Solving for Uy, Initial residual = 0, Final residual = 0, No Iterations 0
smoothSolver:  Solving for Uz, Initial residual = 1, Final residual = 1.0638166e-16, No Iterations 1
DICPCG:  Solving for p, Initial residual = 1, Final residual = 0.047368929, No Iterations 178
DICPCG:  Solving for p, Initial residual = 0.38752396, Final residual = 0.016594547, No Iterations 5
DICPCG:  Solving for p, Initial residual = 0.063342154, Final residual = 0.0031604294, No Iterations 10
time step continuity errors : sum local = 1.8588705e-06, global = 1.8154282e-07, cumulative = 1.8154282e-07
DICPCG:  Solving for p, Initial residual = 0.016548532, Final residual = 0.0008073576, No Iterations 15
DICPCG:  Solving for p, Initial residual = 0.0063118572, Final residual = 0.00028813317, No Iterations 147
DICPCG:  Solving for p, Initial residual = 0.0047779702, Final residual = 9.7545858e-07, No Iterations 196
time step continuity errors : sum local = 5.7408883e-10, global = -7.5685584e-13, cumulative = 1.8154206e-07
ExecutionTime = 1.65 s  ClockTime = 2 s

Time = 0.2

Courant Number mean: 0.00058571971 max: 0.10290214
smoothSolver:  Solving for Ux, Initial residual = 0.33290074, Final residual = 9.4125289e-06, No Iterations 1
smoothSolver:  Solving for Uy, Initial residual = 0.33292692, Final residual = 9.374845e-09, No Iterations 2
smoothSolver:  Solving for Uz, Initial residual = 0.33116374, Final residual = 2.4826384e-08, No Iterations 2
DICPCG:  Solving for p, Initial residual = 0.086652972, Final residual = 0.0042472892, No Iterations 147
DICPCG:  Solving for p, Initial residual = 0.59418198, Final residual = 0.026077572, No Iterations 5
DICPCG:  Solving for p, Initial residual = 0.27928332, Final residual = 0.012386741, No Iterations 13
time step continuity errors : sum local = 1.6906471e-06, global = -1.5265711e-07, cumulative = 2.8884951e-08
DICPCG:  Solving for p, Initial residual = 0.097683667, Final residual = 0.0047272367, No Iterations 159
DICPCG:  Solving for p, Initial residual = 0.073463051, Final residual = 0.0032378245, No Iterations 6
DICPCG:  Solving for p, Initial residual = 0.019171769, Final residual = 9.7567788e-07, No Iterations 241
time step continuity errors : sum local = 9.6174665e-11, global = -5.3650698e-14, cumulative = 2.8884897e-08
ExecutionTime = 3.06 s  ClockTime = 3 s

Time = 0.3

Courant Number mean: 0.00059310063 max: 0.10391589
smoothSolver:  Solving for Ux, Initial residual = 0.022822755, Final residual = 1.1947968e-06, No Iterations 1
smoothSolver:  Solving for Uy, Initial residual = 0.03891872, Final residual = 2.43111e-06, No Iterations 1
smoothSolver:  Solving for Uz, Initial residual = 0.032122201, Final residual = 2.1427147e-06, No Iterations 1
DICPCG:  Solving for p, Initial residual = 0.43695581, Final residual = 0.019195286, No Iterations 4
DICPCG:  Solving for p, Initial residual = 0.21077566, Final residual = 0.010451466, No Iterations 6
DICPCG:  Solving for p, Initial residual = 0.065286828, Final residual = 0.0032267232, No Iterations 14
time step continuity errors : sum local = 1.3195407e-07, global = 1.5350165e-09, cumulative = 3.0419914e-08
DICPCG:  Solving for p, Initial residual = 0.027391081, Final residual = 0.001293422, No Iterations 19
DICPCG:  Solving for p, Initial residual = 0.011531073, Final residual = 0.0005636133, No Iterations 24
DICPCG:  Solving for p, Initial residual = 0.0050157395, Final residual = 9.9738948e-07, No Iterations 203
time step continuity errors : sum local = 4.0468387e-11, global = -3.8184403e-14, cumulative = 3.0419876e-08
ExecutionTime = 3.88 s  ClockTime = 4 s

Time = 0.4

Courant Number mean: 0.00059331079 max: 0.10383641
smoothSolver:  Solving for Ux, Initial residual = 0.0078559426, Final residual = 5.9225109e-07, No Iterations 1
smoothSolver:  Solving for Uy, Initial residual = 0.012892065, Final residual = 9.5137539e-07, No Iterations 1
smoothSolver:  Solving for Uz, Initial residual = 0.011326861, Final residual = 9.6443618e-07, No Iterations 1
DICPCG:  Solving for p, Initial residual = 0.18816866, Final residual = 0.0085275956, No Iterations 3
DICPCG:  Solving for p, Initial residual = 0.050675283, Final residual = 0.0024148492, No Iterations 10
DICPCG:  Solving for p, Initial residual = 0.014561123, Final residual = 0.0006402535, No Iterations 15
time step continuity errors : sum local = 1.8124458e-08, global = -7.0723475e-09, cumulative = 2.3347528e-08
DICPCG:  Solving for p, Initial residual = 0.0057721659, Final residual = 0.00028552209, No Iterations 145
DICPCG:  Solving for p, Initial residual = 0.0053363801, Final residual = 0.00022381899, No Iterations 6
DICPCG:  Solving for p, Initial residual = 0.0013295769, Final residual = 9.5465042e-07, No Iterations 213
time step continuity errors : sum local = 2.7090122e-11, global = 5.4062304e-15, cumulative = 2.3347533e-08
ExecutionTime = 4.93 s  ClockTime = 5 s

Time = 0.5

Courant Number mean: 0.00059332111 max: 0.10388524
smoothSolver:  Solving for Ux, Initial residual = 0.0052952469, Final residual = 4.5181278e-07, No Iterations 1
smoothSolver:  Solving for Uy, Initial residual = 0.0085018848, Final residual = 7.1328126e-07, No Iterations 1
smoothSolver:  Solving for Uz, Initial residual = 0.0076192544, Final residual = 6.8917051e-07, No Iterations 1
DICPCG:  Solving for p, Initial residual = 0.11026537, Final residual = 0.004363031, No Iterations 3
DICPCG:  Solving for p, Initial residual = 0.024060206, Final residual = 0.001018765, No Iterations 14
DICPCG:  Solving for p, Initial residual = 0.0066474214, Final residual = 0.00032619987, No Iterations 139
time step continuity errors : sum local = 7.4992938e-09, global = -9.7614896e-12, cumulative = 2.3337772e-08
DICPCG:  Solving for p, Initial residual = 0.0047598183, Final residual = 0.00021414809, No Iterations 5
DICPCG:  Solving for p, Initial residual = 0.0012445079, Final residual = 6.0257658e-05, No Iterations 24
DICPCG:  Solving for p, Initial residual = 0.00065501936, Final residual = 9.8426094e-07, No Iterations 202
time step continuity errors : sum local = 2.2855449e-11, global = -2.4597866e-14, cumulative = 2.3337747e-08
ExecutionTime = 6.19 s  ClockTime = 7 s

Time = 0.6

Courant Number mean: 0.0005933464 max: 0.10389775
smoothSolver:  Solving for Ux, Initial residual = 0.0042025971, Final residual = 3.8305848e-07, No Iterations 1
smoothSolver:  Solving for Uy, Initial residual = 0.0067074958, Final residual = 6.0742558e-07, No Iterations 1
smoothSolver:  Solving for Uz, Initial residual = 0.0060419599, Final residual = 5.6314191e-07, No Iterations 1
DICPCG:  Solving for p, Initial residual = 0.083158107, Final residual = 0.002903888, No Iterations 3
DICPCG:  Solving for p, Initial residual = 0.016835696, Final residual = 0.0006870353, No Iterations 14
DICPCG:  Solving for p, Initial residual = 0.0044969115, Final residual = 0.00022139356, No Iterations 136
time step continuity errors : sum local = 4.3835142e-09, global = -1.1569818e-11, cumulative = 2.3326178e-08
DICPCG:  Solving for p, Initial residual = 0.0032023532, Final residual = 0.00014807557, No Iterations 5
DICPCG:  Solving for p, Initial residual = 0.00084285744, Final residual = 4.1677556e-05, No Iterations 48
DICPCG:  Solving for p, Initial residual = 0.00054637467, Final residual = 9.5465867e-07, No Iterations 194
time step continuity errors : sum local = 1.9028618e-11, global = -5.5944153e-15, cumulative = 2.3326172e-08
ExecutionTime = 7.31 s  ClockTime = 8 s

Time = 0.7

Courant Number mean: 0.00059337336 max: 0.10389448
smoothSolver:  Solving for Ux, Initial residual = 0.0035152738, Final residual = 3.3336655e-07, No Iterations 1
smoothSolver:  Solving for Uy, Initial residual = 0.0056049068, Final residual = 5.3312285e-07, No Iterations 1
smoothSolver:  Solving for Uz, Initial residual = 0.0050541876, Final residual = 4.8408136e-07, No Iterations 1
DICPCG:  Solving for p, Initial residual = 0.067894648, Final residual = 0.0031248468, No Iterations 2
DICPCG:  Solving for p, Initial residual = 0.013038694, Final residual = 0.00055611684, No Iterations 14
DICPCG:  Solving for p, Initial residual = 0.0034965212, Final residual = 0.0001657399, No Iterations 10
time step continuity errors : sum local = 2.900508e-09, global = -1.3102889e-09, cumulative = 2.2015883e-08
DICPCG:  Solving for p, Initial residual = 0.00124608, Final residual = 6.0228226e-05, No Iterations 147
DICPCG:  Solving for p, Initial residual = 0.001739997, Final residual = 6.5611947e-05, No Iterations 6
DICPCG:  Solving for p, Initial residual = 0.00040672581, Final residual = 9.1731112e-07, No Iterations 196
time step continuity errors : sum local = 1.6124162e-11, global = -2.5271103e-15, cumulative = 2.2015881e-08
ExecutionTime = 8.34 s  ClockTime = 9 s

Time = 0.8

Courant Number mean: 0.00059339915 max: 0.10388903
smoothSolver:  Solving for Ux, Initial residual = 0.0030378192, Final residual = 3.0112136e-07, No Iterations 1
smoothSolver:  Solving for Uy, Initial residual = 0.0048460765, Final residual = 4.8565495e-07, No Iterations 1
smoothSolver:  Solving for Uz, Initial residual = 0.0043674825, Final residual = 4.3311114e-07, No Iterations 1
DICPCG:  Solving for p, Initial residual = 0.057442772, Final residual = 0.0025422101, No Iterations 2
DICPCG:  Solving for p, Initial residual = 0.010636851, Final residual = 0.00050234547, No Iterations 9
DICPCG:  Solving for p, Initial residual = 0.0027204935, Final residual = 0.00012090786, No Iterations 15
time step continuity errors : sum local = 1.9043805e-09, global = -7.7378491e-10, cumulative = 2.1242096e-08
DICPCG:  Solving for p, Initial residual = 0.001084039, Final residual = 5.3878789e-05, No Iterations 140
DICPCG:  Solving for p, Initial residual = 0.0011776835, Final residual = 4.6899245e-05, No Iterations 6
DICPCG:  Solving for p, Initial residual = 0.00027491685, Final residual = 9.7145357e-07, No Iterations 198
time step continuity errors : sum local = 1.5341435e-11, global = -2.1670844e-14, cumulative = 2.1242074e-08
ExecutionTime = 9.34 s  ClockTime = 10 s

Time = 0.9

Courant Number mean: 0.00059342081 max: 0.10387974
smoothSolver:  Solving for Ux, Initial residual = 0.0026850915, Final residual = 2.7518489e-07, No Iterations 1
smoothSolver:  Solving for Uy, Initial residual = 0.0042835724, Final residual = 4.4756948e-07, No Iterations 1
smoothSolver:  Solving for Uz, Initial residual = 0.003856502, Final residual = 3.9295285e-07, No Iterations 1
DICPCG:  Solving for p, Initial residual = 0.050137415, Final residual = 0.002112012, No Iterations 2
DICPCG:  Solving for p, Initial residual = 0.0089904885, Final residual = 0.00039031153, No Iterations 9
DICPCG:  Solving for p, Initial residual = 0.0022350696, Final residual = 0.00010776814, No Iterations 14
time step continuity errors : sum local = 1.5459754e-09, global = -4.8118217e-10, cumulative = 2.0760892e-08
DICPCG:  Solving for p, Initial residual = 0.00088156832, Final residual = 4.2932169e-05, No Iterations 140
DICPCG:  Solving for p, Initial residual = 0.0008673815, Final residual = 3.5113451e-05, No Iterations 6
DICPCG:  Solving for p, Initial residual = 0.0002043882, Final residual = 9.6533518e-07, No Iterations 193
time step continuity errors : sum local = 1.3871804e-11, global = 2.4652013e-14, cumulative = 2.0760916e-08
ExecutionTime = 10.36 s  ClockTime = 11 s

Time = 1

Courant Number mean: 0.00059344005 max: 0.10386504
smoothSolver:  Solving for Ux, Initial residual = 0.002412592, Final residual = 2.5737269e-07, No Iterations 1
smoothSolver:  Solving for Uy, Initial residual = 0.0038471436, Final residual = 4.164488e-07, No Iterations 1
smoothSolver:  Solving for Uz, Initial residual = 0.0034595874, Final residual = 3.6295765e-07, No Iterations 1
DICPCG:  Solving for p, Initial residual = 0.044468651, Final residual = 0.0018138373, No Iterations 2
DICPCG:  Solving for p, Initial residual = 0.0077692797, Final residual = 0.00038002116, No Iterations 8
DICPCG:  Solving for p, Initial residual = 0.0019122437, Final residual = 9.2459449e-05, No Iterations 14
time step continuity errors : sum local = 1.2202763e-09, global = -3.13853e-10, cumulative = 2.0447063e-08
DICPCG:  Solving for p, Initial residual = 0.00075006949, Final residual = 3.6122247e-05, No Iterations 139
DICPCG:  Solving for p, Initial residual = 0.00064047683, Final residual = 2.6524079e-05, No Iterations 6
DICPCG:  Solving for p, Initial residual = 0.00015276249, Final residual = 9.9109984e-07, No Iterations 169
time step continuity errors : sum local = 1.3094714e-11, global = 1.4009768e-14, cumulative = 2.0447078e-08
ExecutionTime = 11.51 s  ClockTime = 12 s

Time = 1.1

Courant Number mean: 0.00059345773 max: 0.10384424
smoothSolver:  Solving for Ux, Initial residual = 0.0021945909, Final residual = 2.4161259e-07, No Iterations 1
smoothSolver:  Solving for Uy, Initial residual = 0.0034974141, Final residual = 3.9031111e-07, No Iterations 1
smoothSolver:  Solving for Uz, Initial residual = 0.0031421758, Final residual = 3.3660452e-07, No Iterations 1
DICPCG:  Solving for p, Initial residual = 0.040008866, Final residual = 0.0016224704, No Iterations 2
DICPCG:  Solving for p, Initial residual = 0.0068393487, Final residual = 0.00032934161, No Iterations 8
DICPCG:  Solving for p, Initial residual = 0.0016691567, Final residual = 7.8542977e-05, No Iterations 14
time step continuity errors : sum local = 9.611954e-10, global = -2.0701613e-10, cumulative = 2.0240061e-08
DICPCG:  Solving for p, Initial residual = 0.00064624089, Final residual = 3.0554162e-05, No Iterations 107
DICPCG:  Solving for p, Initial residual = 0.00046847114, Final residual = 2.1663858e-05, No Iterations 6
DICPCG:  Solving for p, Initial residual = 0.00011625291, Final residual = 9.9455687e-07, No Iterations 86
time step continuity errors : sum local = 1.2178893e-11, global = 2.1267214e-12, cumulative = 2.0242188e-08
ExecutionTime = 12.25 s  ClockTime = 13 s

Time = 1.2

Courant Number mean: 0.00059347399 max: 0.10381914
smoothSolver:  Solving for Ux, Initial residual = 0.0020159644, Final residual = 2.2857538e-07, No Iterations 1
smoothSolver:  Solving for Uy, Initial residual = 0.0032096605, Final residual = 3.670933e-07, No Iterations 1
smoothSolver:  Solving for Uz, Initial residual = 0.0028802527, Final residual = 3.1450709e-07, No Iterations 1
DICPCG:  Solving for p, Initial residual = 0.036272867, Final residual = 0.0014556201, No Iterations 2
DICPCG:  Solving for p, Initial residual = 0.0061053856, Final residual = 0.00028746952, No Iterations 8
DICPCG:  Solving for p, Initial residual = 0.0014772779, Final residual = 6.6647851e-05, No Iterations 14
time step continuity errors : sum local = 7.6138102e-10, global = -1.2084346e-10, cumulative = 2.0121345e-08
DICPCG:  Solving for p, Initial residual = 0.00056855149, Final residual = 2.8067086e-05, No Iterations 17
DICPCG:  Solving for p, Initial residual = 0.00023565798, Final residual = 1.1657628e-05, No Iterations 119
DICPCG:  Solving for p, Initial residual = 0.00026604682, Final residual = 9.4991911e-07, No Iterations 174
time step continuity errors : sum local = 1.0853884e-11, global = 2.6677828e-14, cumulative = 2.0121371e-08
ExecutionTime = 13.21 s  ClockTime = 14 s

Time = 1.3

Courant Number mean: 0.00059348736 max: 0.1037936
smoothSolver:  Solving for Ux, Initial residual = 0.001866509, Final residual = 2.1747179e-07, No Iterations 1
smoothSolver:  Solving for Uy, Initial residual = 0.0029691853, Final residual = 3.4845789e-07, No Iterations 1
smoothSolver:  Solving for Uz, Initial residual = 0.0026621138, Final residual = 2.9663437e-07, No Iterations 1
DICPCG:  Solving for p, Initial residual = 0.033171033, Final residual = 0.0013298899, No Iterations 2
DICPCG:  Solving for p, Initial residual = 0.0054791756, Final residual = 0.00026037869, No Iterations 8
DICPCG:  Solving for p, Initial residual = 0.001321727, Final residual = 5.9218687e-05, No Iterations 14
time step continuity errors : sum local = 6.3519666e-10, global = -8.283089e-11, cumulative = 2.003854e-08
DICPCG:  Solving for p, Initial residual = 0.00050747988, Final residual = 2.3068402e-05, No Iterations 16
DICPCG:  Solving for p, Initial residual = 0.00020375428, Final residual = 9.7537521e-06, No Iterations 138
DICPCG:  Solving for p, Initial residual = 0.00021148608, Final residual = 9.6683984e-07, No Iterations 171
time step continuity errors : sum local = 1.0371237e-11, global = 1.4387991e-14, cumulative = 2.0038555e-08
ExecutionTime = 14.27 s  ClockTime = 15 s

Time = 1.4

Courant Number mean: 0.00059349892 max: 0.10376886
smoothSolver:  Solving for Ux, Initial residual = 0.0017391344, Final residual = 2.0740214e-07, No Iterations 1
smoothSolver:  Solving for Uy, Initial residual = 0.0027649233, Final residual = 3.3703584e-07, No Iterations 1
smoothSolver:  Solving for Uz, Initial residual = 0.002476573, Final residual = 2.8076549e-07, No Iterations 1
DICPCG:  Solving for p, Initial residual = 0.030668661, Final residual = 0.001211382, No Iterations 2
DICPCG:  Solving for p, Initial residual = 0.0049891855, Final residual = 0.00023988863, No Iterations 8
DICPCG:  Solving for p, Initial residual = 0.001197482, Final residual = 5.421836e-05, No Iterations 14
time step continuity errors : sum local = 5.4868269e-10, global = -4.1233376e-11, cumulative = 1.9997321e-08
DICPCG:  Solving for p, Initial residual = 0.00046264998, Final residual = 2.1291248e-05, No Iterations 15
DICPCG:  Solving for p, Initial residual = 0.00018274544, Final residual = 8.7977321e-06, No Iterations 138
DICPCG:  Solving for p, Initial residual = 0.00013972045, Final residual = 9.9820178e-07, No Iterations 163
time step continuity errors : sum local = 1.010035e-11, global = 2.6984427e-14, cumulative = 1.9997348e-08
ExecutionTime = 15.25 s  ClockTime = 16 s

Time = 1.5

Courant Number mean: 0.00059350885 max: 0.10373986
smoothSolver:  Solving for Ux, Initial residual = 0.0016292397, Final residual = 1.9731846e-07, No Iterations 1
smoothSolver:  Solving for Uy, Initial residual = 0.0025893325, Final residual = 3.2097511e-07, No Iterations 1
smoothSolver:  Solving for Uz, Initial residual = 0.0023181926, Final residual = 2.6590515e-07, No Iterations 1
DICPCG:  Solving for p, Initial residual = 0.028549804, Final residual = 0.0011047417, No Iterations 2
DICPCG:  Solving for p, Initial residual = 0.0045749351, Final residual = 0.00022230516, No Iterations 8
DICPCG:  Solving for p, Initial residual = 0.0010963162, Final residual = 5.0105028e-05, No Iterations 14
time step continuity errors : sum local = 4.8022523e-10, global = -4.6381086e-12, cumulative = 1.999271e-08
DICPCG:  Solving for p, Initial residual = 0.00043077176, Final residual = 1.9970694e-05, No Iterations 15
DICPCG:  Solving for p, Initial residual = 0.00017139249, Final residual = 8.2000428e-06, No Iterations 22
DICPCG:  Solving for p, Initial residual = 7.3610794e-05, Final residual = 9.1394849e-07, No Iterations 73
time step continuity errors : sum local = 8.756968e-12, global = 9.5480528e-13, cumulative = 1.9993665e-08
ExecutionTime = 16.04 s  ClockTime = 16 s

Time = 1.6

Courant Number mean: 0.00059351979 max: 0.10371167
smoothSolver:  Solving for Ux, Initial residual = 0.0015333542, Final residual = 1.8912945e-07, No Iterations 1
smoothSolver:  Solving for Uy, Initial residual = 0.0024363971, Final residual = 3.079543e-07, No Iterations 1
smoothSolver:  Solving for Uz, Initial residual = 0.002180412, Final residual = 2.5306183e-07, No Iterations 1
DICPCG:  Solving for p, Initial residual = 0.026794485, Final residual = 0.0010492622, No Iterations 2
DICPCG:  Solving for p, Initial residual = 0.0042517419, Final residual = 0.00021050435, No Iterations 8
DICPCG:  Solving for p, Initial residual = 0.001023252, Final residual = 4.8260915e-05, No Iterations 14
time step continuity errors : sum local = 4.395473e-10, global = 3.5403828e-11, cumulative = 2.0029069e-08
DICPCG:  Solving for p, Initial residual = 0.00041349318, Final residual = 1.8402066e-05, No Iterations 16
DICPCG:  Solving for p, Initial residual = 0.0001707299, Final residual = 8.1711234e-06, No Iterations 140
DICPCG:  Solving for p, Initial residual = 0.00010549775, Final residual = 9.7101977e-07, No Iterations 168
time step continuity errors : sum local = 8.839108e-12, global = -4.4069366e-14, cumulative = 2.0029025e-08
ExecutionTime = 17.04 s  ClockTime = 17 s

Time = 1.7

Courant Number mean: 0.00059353022 max: 0.10368598
smoothSolver:  Solving for Ux, Initial residual = 0.0014492738, Final residual = 1.8071223e-07, No Iterations 1
smoothSolver:  Solving for Uy, Initial residual = 0.0023030275, Final residual = 2.9300827e-07, No Iterations 1
smoothSolver:  Solving for Uz, Initial residual = 0.0020590923, Final residual = 2.4163656e-07, No Iterations 1
DICPCG:  Solving for p, Initial residual = 0.025026251, Final residual = 0.00097144045, No Iterations 2
DICPCG:  Solving for p, Initial residual = 0.0039208499, Final residual = 0.00016320545, No Iterations 9
DICPCG:  Solving for p, Initial residual = 0.00094418558, Final residual = 4.1620186e-05, No Iterations 14
time step continuity errors : sum local = 3.6142607e-10, global = 4.1155348e-11, cumulative = 2.007018e-08
DICPCG:  Solving for p, Initial residual = 0.00037813839, Final residual = 1.6936482e-05, No Iterations 16
DICPCG:  Solving for p, Initial residual = 0.00015523667, Final residual = 7.6331351e-06, No Iterations 144
DICPCG:  Solving for p, Initial residual = 0.00011560738, Final residual = 9.8741043e-07, No Iterations 166
time step continuity errors : sum local = 8.5696086e-12, global = -5.0669193e-15, cumulative = 2.0070175e-08
ExecutionTime = 18.01 s  ClockTime = 18 s

Time = 1.8

Courant Number mean: 0.00059354092 max: 0.10366521
smoothSolver:  Solving for Ux, Initial residual = 0.0013752418, Final residual = 1.7333754e-07, No Iterations 1
smoothSolver:  Solving for Uy, Initial residual = 0.002184588, Final residual = 2.8149058e-07, No Iterations 1
smoothSolver:  Solving for Uz, Initial residual = 0.0019516771, Final residual = 2.3207045e-07, No Iterations 1
DICPCG:  Solving for p, Initial residual = 0.023740073, Final residual = 0.00089159183, No Iterations 2
DICPCG:  Solving for p, Initial residual = 0.0036530402, Final residual = 0.00015824377, No Iterations 9
DICPCG:  Solving for p, Initial residual = 0.00088599089, Final residual = 4.1016866e-05, No Iterations 14
time step continuity errors : sum local = 3.4049387e-10, global = 5.6725125e-11, cumulative = 2.01269e-08
DICPCG:  Solving for p, Initial residual = 0.00035970844, Final residual = 1.7965652e-05, No Iterations 17
DICPCG:  Solving for p, Initial residual = 0.00015495139, Final residual = 7.5866329e-06, No Iterations 135
DICPCG:  Solving for p, Initial residual = 0.00014663048, Final residual = 9.2737997e-07, No Iterations 158
time step continuity errors : sum local = 7.6933554e-12, global = -1.2895497e-14, cumulative = 2.0126887e-08
ExecutionTime = 18.98 s  ClockTime = 19 s

Time = 1.9

Courant Number mean: 0.00059355124 max: 0.1036485
smoothSolver:  Solving for Ux, Initial residual = 0.001308563, Final residual = 1.6697025e-07, No Iterations 1
smoothSolver:  Solving for Uy, Initial residual = 0.002078186, Final residual = 2.704048e-07, No Iterations 1
smoothSolver:  Solving for Uz, Initial residual = 0.0018565275, Final residual = 2.2384984e-07, No Iterations 1
DICPCG:  Solving for p, Initial residual = 0.022412563, Final residual = 0.0008510739, No Iterations 2
DICPCG:  Solving for p, Initial residual = 0.0034210164, Final residual = 0.00015320958, No Iterations 9
DICPCG:  Solving for p, Initial residual = 0.00083218476, Final residual = 3.9375911e-05, No Iterations 14
time step continuity errors : sum local = 3.1329773e-10, global = 6.104089e-11, cumulative = 2.0187928e-08
DICPCG:  Solving for p, Initial residual = 0.00034289836, Final residual = 1.7132457e-05, No Iterations 139
DICPCG:  Solving for p, Initial residual = 0.00020631639, Final residual = 9.0375452e-06, No Iterations 6
DICPCG:  Solving for p, Initial residual = 5.5261926e-05, Final residual = 9.5076828e-07, No Iterations 175
time step continuity errors : sum local = 7.5592162e-12, global = -3.0506028e-14, cumulative = 2.0187898e-08
ExecutionTime = 19.96 s  ClockTime = 20 s

Time = 2

Courant Number mean: 0.00059356096 max: 0.10363717
smoothSolver:  Solving for Ux, Initial residual = 0.0012485514, Final residual = 1.610232e-07, No Iterations 1
smoothSolver:  Solving for Uy, Initial residual = 0.0019816122, Final residual = 2.6028329e-07, No Iterations 1
smoothSolver:  Solving for Uz, Initial residual = 0.0017704355, Final residual = 2.1416312e-07, No Iterations 1
DICPCG:  Solving for p, Initial residual = 0.021375886, Final residual = 0.00079323823, No Iterations 2
DICPCG:  Solving for p, Initial residual = 0.0032401369, Final residual = 0.0001519687, No Iterations 9
DICPCG:  Solving for p, Initial residual = 0.00078786913, Final residual = 3.6949971e-05, No Iterations 15
time step continuity errors : sum local = 2.8238826e-10, global = 7.2275863e-11, cumulative = 2.0260174e-08
DICPCG:  Solving for p, Initial residual = 0.00034015844, Final residual = 1.6310482e-05, No Iterations 155
DICPCG:  Solving for p, Initial residual = 0.00023615859, Final residual = 1.1052541e-05, No Iterations 5
DICPCG:  Solving for p, Initial residual = 6.1699438e-05, Final residual = 9.8367808e-07, No Iterations 177
time step continuity errors : sum local = 7.5110682e-12, global = -3.9301372e-14, cumulative = 2.0260134e-08
ExecutionTime = 21.17 s  ClockTime = 22 s

Time = 2.1

Courant Number mean: 0.00059356997 max: 0.10362535
smoothSolver:  Solving for Ux, Initial residual = 0.0011946287, Final residual = 1.5764384e-07, No Iterations 1
smoothSolver:  Solving for Uy, Initial residual = 0.0018950969, Final residual = 2.4961293e-07, No Iterations 1
smoothSolver:  Solving for Uz, Initial residual = 0.0016932136, Final residual = 2.0584819e-07, No Iterations 1
DICPCG:  Solving for p, Initial residual = 0.020271007, Final residual = 0.00080321491, No Iterations 2
DICPCG:  Solving for p, Initial residual = 0.0030695369, Final residual = 0.00014352445, No Iterations 10
DICPCG:  Solving for p, Initial residual = 0.00077648585, Final residual = 3.3041155e-05, No Iterations 15
time step continuity errors : sum local = 2.4305119e-10, global = 6.3542496e-11, cumulative = 2.0323677e-08
DICPCG:  Solving for p, Initial residual = 0.00033112082, Final residual = 1.5881748e-05, No Iterations 145
DICPCG:  Solving for p, Initial residual = 0.00021620056, Final residual = 1.0201662e-05, No Iterations 5
DICPCG:  Solving for p, Initial residual = 5.6868924e-05, Final residual = 9.786724e-07, No Iterations 184
time step continuity errors : sum local = 7.1933753e-12, global = -6.9492761e-15, cumulative = 2.032367e-08
ExecutionTime = 22.16 s  ClockTime = 23 s

Time = 2.2

Courant Number mean: 0.00059357864 max: 0.10361855
smoothSolver:  Solving for Ux, Initial residual = 0.0011456208, Final residual = 1.523081e-07, No Iterations 1
smoothSolver:  Solving for Uy, Initial residual = 0.0018161673, Final residual = 2.3926261e-07, No Iterations 1
smoothSolver:  Solving for Uz, Initial residual = 0.0016227112, Final residual = 1.9928348e-07, No Iterations 1
DICPCG:  Solving for p, Initial residual = 0.019379847, Final residual = 0.00077919245, No Iterations 2
DICPCG:  Solving for p, Initial residual = 0.0029171009, Final residual = 0.00014495613, No Iterations 12
DICPCG:  Solving for p, Initial residual = 0.00074717568, Final residual = 3.1317007e-05, No Iterations 15
time step continuity errors : sum local = 2.2214953e-10, global = 5.9553706e-11, cumulative = 2.0383224e-08
DICPCG:  Solving for p, Initial residual = 0.00031419519, Final residual = 1.5675077e-05, No Iterations 139
DICPCG:  Solving for p, Initial residual = 0.0002032521, Final residual = 9.9919976e-06, No Iterations 5
DICPCG:  Solving for p, Initial residual = 5.4005657e-05, Final residual = 9.6476608e-07, No Iterations 176
time step continuity errors : sum local = 6.8384154e-12, global = -1.3734002e-14, cumulative = 2.038321e-08
ExecutionTime = 23.16 s  ClockTime = 24 s

Time = 2.3

Courant Number mean: 0.00059358733 max: 0.10361846
smoothSolver:  Solving for Ux, Initial residual = 0.0011007713, Final residual = 1.4764849e-07, No Iterations 1
smoothSolver:  Solving for Uy, Initial residual = 0.0017440188, Final residual = 2.2796074e-07, No Iterations 1
smoothSolver:  Solving for Uz, Initial residual = 0.0015583215, Final residual = 1.935573e-07, No Iterations 1
DICPCG:  Solving for p, Initial residual = 0.018719829, Final residual = 0.00074373505, No Iterations 2
DICPCG:  Solving for p, Initial residual = 0.0028169424, Final residual = 0.00013363646, No Iterations 13
DICPCG:  Solving for p, Initial residual = 0.00074599875, Final residual = 3.2163911e-05, No Iterations 15
time step continuity errors : sum local = 2.2035076e-10, global = 6.5049755e-11, cumulative = 2.044826e-08
DICPCG:  Solving for p, Initial residual = 0.00031485872, Final residual = 1.5212949e-05, No Iterations 144
DICPCG:  Solving for p, Initial residual = 0.00022266645, Final residual = 1.0802847e-05, No Iterations 5
DICPCG:  Solving for p, Initial residual = 5.7258985e-05, Final residual = 9.5274977e-07, No Iterations 176
time step continuity errors : sum local = 6.5219296e-12, global = -3.6071117e-14, cumulative = 2.0448224e-08
ExecutionTime = 24.15 s  ClockTime = 25 s

Time = 2.4

Courant Number mean: 0.00059359598 max: 0.10362522
smoothSolver:  Solving for Ux, Initial residual = 0.0010592162, Final residual = 1.4399856e-07, No Iterations 1
smoothSolver:  Solving for Uy, Initial residual = 0.0016780719, Final residual = 2.1795148e-07, No Iterations 1
smoothSolver:  Solving for Uz, Initial residual = 0.0014984835, Final residual = 1.8733837e-07, No Iterations 1
DICPCG:  Solving for p, Initial residual = 0.017959301, Final residual = 0.00081145488, No Iterations 2
DICPCG:  Solving for p, Initial residual = 0.0027064188, Final residual = 0.00012673892, No Iterations 13
DICPCG:  Solving for p, Initial residual = 0.00072618819, Final residual = 2.8948838e-05, No Iterations 15
time step continuity errors : sum local = 1.9185333e-10, global = 3.9049199e-11, cumulative = 2.0487273e-08
DICPCG:  Solving for p, Initial residual = 0.0003013725, Final residual = 1.4530876e-05, No Iterations 9
DICPCG:  Solving for p, Initial residual = 9.7437254e-05, Final residual = 4.6945692e-06, No Iterations 163
DICPCG:  Solving for p, Initial residual = 0.000144495, Final residual = 9.4369496e-07, No Iterations 151
time step continuity errors : sum local = 6.2508672e-12, global = 6.0058561e-15, cumulative = 2.0487279e-08
ExecutionTime = 25.16 s  ClockTime = 26 s

Time = 2.5

Courant Number mean: 0.00059360467 max: 0.10363983
smoothSolver:  Solving for Ux, Initial residual = 0.0010212975, Final residual = 1.3900553e-07, No Iterations 1
smoothSolver:  Solving for Uy, Initial residual = 0.001618106, Final residual = 2.0827856e-07, No Iterations 1
smoothSolver:  Solving for Uz, Initial residual = 0.0014435533, Final residual = 1.8034499e-07, No Iterations 1
DICPCG:  Solving for p, Initial residual = 0.017100708, Final residual = 0.00074311817, No Iterations 2
DICPCG:  Solving for p, Initial residual = 0.0025284847, Final residual = 0.00012599714, No Iterations 13
DICPCG:  Solving for p, Initial residual = 0.00069321535, Final residual = 2.7599075e-05, No Iterations 15
time step continuity errors : sum local = 1.7726935e-10, global = 3.8588081e-11, cumulative = 2.0525867e-08
DICPCG:  Solving for p, Initial residual = 0.00028985594, Final residual = 1.361356e-05, No Iterations 9
DICPCG:  Solving for p, Initial residual = 9.2867107e-05, Final residual = 4.6170462e-06, No Iterations 145
DICPCG:  Solving for p, Initial residual = 0.0001462627, Final residual = 9.8170286e-07, No Iterations 162
time step continuity errors : sum local = 6.3022034e-12, global = 2.7590407e-15, cumulative = 2.052587e-08
ExecutionTime = 26.33 s  ClockTime = 27 s

Time = 2.6

Courant Number mean: 0.00059361357 max: 0.10365989
smoothSolver:  Solving for Ux, Initial residual = 0.00098542449, Final residual = 1.3428214e-07, No Iterations 1
smoothSolver:  Solving for Uy, Initial residual = 0.0015625796, Final residual = 1.9987796e-07, No Iterations 1
smoothSolver:  Solving for Uz, Initial residual = 0.0013927745, Final residual = 1.7356994e-07, No Iterations 1
DICPCG:  Solving for p, Initial residual = 0.016342177, Final residual = 0.0007898691, No Iterations 2
DICPCG:  Solving for p, Initial residual = 0.0024524782, Final residual = 0.00010537328, No Iterations 14
DICPCG:  Solving for p, Initial residual = 0.00067277698, Final residual = 2.8476668e-05, No Iterations 15
time step continuity errors : sum local = 1.7758207e-10, global = 4.1494042e-11, cumulative = 2.0567364e-08
DICPCG:  Solving for p, Initial residual = 0.00028568955, Final residual = 1.40502e-05, No Iterations 9
DICPCG:  Solving for p, Initial residual = 9.3583316e-05, Final residual = 4.6447776e-06, No Iterations 160
DICPCG:  Solving for p, Initial residual = 0.00015641261, Final residual = 9.8438398e-07, No Iterations 152
time step continuity errors : sum local = 6.1353976e-12, global = -7.0269645e-16, cumulative = 2.0567363e-08
ExecutionTime = 27.31 s  ClockTime = 28 s

Time = 2.7

Courant Number mean: 0.00059362224 max: 0.10368401
smoothSolver:  Solving for Ux, Initial residual = 0.00095192519, Final residual = 1.2822982e-07, No Iterations 1
smoothSolver:  Solving for Uy, Initial residual = 0.0015117442, Final residual = 1.8933856e-07, No Iterations 1
smoothSolver:  Solving for Uz, Initial residual = 0.0013456351, Final residual = 1.6588862e-07, No Iterations 1
DICPCG:  Solving for p, Initial residual = 0.015813983, Final residual = 0.00070546674, No Iterations 2
DICPCG:  Solving for p, Initial residual = 0.0023522529, Final residual = 0.00010120075, No Iterations 14
DICPCG:  Solving for p, Initial residual = 0.00064924214, Final residual = 3.1959939e-05, No Iterations 10
time step continuity errors : sum local = 1.9368979e-10, global = 4.4498653e-11, cumulative = 2.0611862e-08
DICPCG:  Solving for p, Initial residual = 0.00025491476, Final residual = 1.2577788e-05, No Iterations 145
DICPCG:  Solving for p, Initial residual = 0.00019523188, Final residual = 7.7960829e-06, No Iterations 5
DICPCG:  Solving for p, Initial residual = 4.8981084e-05, Final residual = 9.9416997e-07, No Iterations 90
time step continuity errors : sum local = 6.0215994e-12, global = -9.7352947e-13, cumulative = 2.0610888e-08
ExecutionTime = 28.12 s  ClockTime = 28 s

Time = 2.8

Courant Number mean: 0.00059363027 max: 0.10371135
smoothSolver:  Solving for Ux, Initial residual = 0.00092097521, Final residual = 1.2441627e-07, No Iterations 1
smoothSolver:  Solving for Uy, Initial residual = 0.0014637219, Final residual = 1.8219253e-07, No Iterations 1
smoothSolver:  Solving for Uz, Initial residual = 0.0013011775, Final residual = 1.5956271e-07, No Iterations 1
DICPCG:  Solving for p, Initial residual = 0.015098675, Final residual = 0.00069169859, No Iterations 2
DICPCG:  Solving for p, Initial residual = 0.0022393191, Final residual = 0.00010491834, No Iterations 14
DICPCG:  Solving for p, Initial residual = 0.00063473573, Final residual = 2.7529963e-05, No Iterations 15
time step continuity errors : sum local = 1.6236243e-10, global = 3.9119538e-11, cumulative = 2.0650008e-08
DICPCG:  Solving for p, Initial residual = 0.00027684987, Final residual = 1.3468539e-05, No Iterations 9
DICPCG:  Solving for p, Initial residual = 9.160311e-05, Final residual = 4.4855659e-06, No Iterations 157
DICPCG:  Solving for p, Initial residual = 0.00015197972, Final residual = 9.6667813e-07, No Iterations 168
time step continuity errors : sum local = 5.6982206e-12, global = -1.5763196e-14, cumulative = 2.0649992e-08
ExecutionTime = 29.13 s  ClockTime = 30 s

Time = 2.9

Courant Number mean: 0.00059363799 max: 0.10374102
smoothSolver:  Solving for Ux, Initial residual = 0.00089213919, Final residual = 1.2097273e-07, No Iterations 1
smoothSolver:  Solving for Uy, Initial residual = 0.0014188434, Final residual = 1.7598416e-07, No Iterations 1
smoothSolver:  Solving for Uz, Initial residual = 0.001259919, Final residual = 1.5326255e-07, No Iterations 1
DICPCG:  Solving for p, Initial residual = 0.014562389, Final residual = 0.00064944575, No Iterations 2
DICPCG:  Solving for p, Initial residual = 0.0021511099, Final residual = 0.00010064625, No Iterations 14
DICPCG:  Solving for p, Initial residual = 0.00061329592, Final residual = 2.8513547e-05, No Iterations 15
time step continuity errors : sum local = 1.6383329e-10, global = 5.2495611e-11, cumulative = 2.0702487e-08
DICPCG:  Solving for p, Initial residual = 0.00026916298, Final residual = 1.2806722e-05, No Iterations 135
DICPCG:  Solving for p, Initial residual = 0.00022213832, Final residual = 9.6198099e-06, No Iterations 5
DICPCG:  Solving for p, Initial residual = 5.4492206e-05, Final residual = 9.4926959e-07, No Iterations 170
time step continuity errors : sum local = 5.4504302e-12, global = -1.2142158e-14, cumulative = 2.0702475e-08
ExecutionTime = 30.1 s  ClockTime = 30 s

Time = 3

Courant Number mean: 0.00059364525 max: 0.10377259
smoothSolver:  Solving for Ux, Initial residual = 0.0008652996, Final residual = 1.1763642e-07, No Iterations 1
smoothSolver:  Solving for Uy, Initial residual = 0.0013768632, Final residual = 1.7122361e-07, No Iterations 1
smoothSolver:  Solving for Uz, Initial residual = 0.0012211091, Final residual = 1.48017e-07, No Iterations 1
DICPCG:  Solving for p, Initial residual = 0.014024448, Final residual = 0.00066364383, No Iterations 2
DICPCG:  Solving for p, Initial residual = 0.0020924191, Final residual = 0.00010113898, No Iterations 14
DICPCG:  Solving for p, Initial residual = 0.00061411607, Final residual = 2.9845221e-05, No Iterations 15
time step continuity errors : sum local = 1.6720342e-10, global = 5.7329428e-11, cumulative = 2.0759805e-08
DICPCG:  Solving for p, Initial residual = 0.00027592354, Final residual = 1.3321147e-05, No Iterations 144
DICPCG:  Solving for p, Initial residual = 0.00022798936, Final residual = 1.0399188e-05, No Iterations 5
DICPCG:  Solving for p, Initial residual = 5.6915264e-05, Final residual = 9.6004562e-07, No Iterations 171
time step continuity errors : sum local = 5.374437e-12, global = -3.6739578e-14, cumulative = 2.0759768e-08
ExecutionTime = 31.28 s  ClockTime = 32 s

Time = 3.1

Courant Number mean: 0.00059365251 max: 0.1038054
smoothSolver:  Solving for Ux, Initial residual = 0.0008402999, Final residual = 1.1409392e-07, No Iterations 1
smoothSolver:  Solving for Uy, Initial residual = 0.0013377878, Final residual = 1.6576155e-07, No Iterations 1
smoothSolver:  Solving for Uz, Initial residual = 0.0011848751, Final residual = 1.4283284e-07, No Iterations 1
DICPCG:  Solving for p, Initial residual = 0.013545596, Final residual = 0.00063112768, No Iterations 2
DICPCG:  Solving for p, Initial residual = 0.0020283161, Final residual = 9.6960061e-05, No Iterations 14
DICPCG:  Solving for p, Initial residual = 0.00059360212, Final residual = 2.9350965e-05, No Iterations 15
time step continuity errors : sum local = 1.6048869e-10, global = 5.553476e-11, cumulative = 2.0815303e-08
DICPCG:  Solving for p, Initial residual = 0.00026549157, Final residual = 1.1740364e-05, No Iterations 146
DICPCG:  Solving for p, Initial residual = 0.000231322, Final residual = 1.0412265e-05, No Iterations 5
DICPCG:  Solving for p, Initial residual = 5.6346545e-05, Final residual = 9.0574094e-07, No Iterations 170
time step continuity errors : sum local = 4.9487893e-12, global = -8.2707649e-15, cumulative = 2.0815294e-08
ExecutionTime = 32.25 s  ClockTime = 33 s

Time = 3.2

Courant Number mean: 0.00059365948 max: 0.1038364
smoothSolver:  Solving for Ux, Initial residual = 0.00081668584, Final residual = 1.1112306e-07, No Iterations 1
smoothSolver:  Solving for Uy, Initial residual = 0.0013006011, Final residual = 1.5982198e-07, No Iterations 1
smoothSolver:  Solving for Uz, Initial residual = 0.001150797, Final residual = 1.3797032e-07, No Iterations 1
DICPCG:  Solving for p, Initial residual = 0.013101424, Final residual = 0.0006120834, No Iterations 2
DICPCG:  Solving for p, Initial residual = 0.0019609816, Final residual = 9.486791e-05, No Iterations 14
DICPCG:  Solving for p, Initial residual = 0.00058017551, Final residual = 2.8186559e-05, No Iterations 15
time step continuity errors : sum local = 1.5060248e-10, global = 5.0801878e-11, cumulative = 2.0866096e-08
DICPCG:  Solving for p, Initial residual = 0.00026071493, Final residual = 1.2679263e-05, No Iterations 135
DICPCG:  Solving for p, Initial residual = 0.00021132, Final residual = 9.9912259e-06, No Iterations 5
DICPCG:  Solving for p, Initial residual = 5.2948933e-05, Final residual = 9.7462111e-07, No Iterations 174
time step continuity errors : sum local = 5.2038155e-12, global = -1.9802699e-14, cumulative = 2.0866077e-08
ExecutionTime = 33.23 s  ClockTime = 34 s

Time = 3.3

Courant Number mean: 0.00059366593 max: 0.10386036
smoothSolver:  Solving for Ux, Initial residual = 0.00079460103, Final residual = 1.0831054e-07, No Iterations 1
smoothSolver:  Solving for Uy, Initial residual = 0.0012658345, Final residual = 1.5417931e-07, No Iterations 1
smoothSolver:  Solving for Uz, Initial residual = 0.0011185981, Final residual = 1.3330809e-07, No Iterations 1
DICPCG:  Solving for p, Initial residual = 0.012649222, Final residual = 0.00058508747, No Iterations 2
DICPCG:  Solving for p, Initial residual = 0.0018827881, Final residual = 9.1242557e-05, No Iterations 14
DICPCG:  Solving for p, Initial residual = 0.00055456437, Final residual = 2.7375492e-05, No Iterations 15
time step continuity errors : sum local = 1.430638e-10, global = 4.8903174e-11, cumulative = 2.091498e-08
DICPCG:  Solving for p, Initial residual = 0.00025078306, Final residual = 1.2109093e-05, No Iterations 129
DICPCG:  Solving for p, Initial residual = 0.00020943963, Final residual = 9.8788057e-06, No Iterations 5
DICPCG:  Solving for p, Initial residual = 5.2250972e-05, Final residual = 9.3916245e-07, No Iterations 172
time step continuity errors : sum local = 4.9046624e-12, global = -2.8504816e-14, cumulative = 2.0914951e-08
ExecutionTime = 34.17 s  ClockTime = 35 s

Time = 3.4

Courant Number mean: 0.00059367183 max: 0.10387826
smoothSolver:  Solving for Ux, Initial residual = 0.00077381917, Final residual = 1.0541129e-07, No Iterations 1
smoothSolver:  Solving for Uy, Initial residual = 0.0012327884, Final residual = 1.4968313e-07, No Iterations 1
smoothSolver:  Solving for Uz, Initial residual = 0.0010886333, Final residual = 1.2928114e-07, No Iterations 1
DICPCG:  Solving for p, Initial residual = 0.012255391, Final residual = 0.00056270747, No Iterations 2
DICPCG:  Solving for p, Initial residual = 0.0018095432, Final residual = 8.9225576e-05, No Iterations 14
DICPCG:  Solving for p, Initial residual = 0.00053509672, Final residual = 2.4010715e-05, No Iterations 16
time step continuity errors : sum local = 1.2283233e-10, global = 4.8797641e-11, cumulative = 2.0963749e-08
DICPCG:  Solving for p, Initial residual = 0.00024528281, Final residual = 1.1970858e-05, No Iterations 127
DICPCG:  Solving for p, Initial residual = 0.00021835219, Final residual = 1.0073823e-05, No Iterations 5
DICPCG:  Solving for p, Initial residual = 5.3819159e-05, Final residual = 9.3824965e-07, No Iterations 175
time step continuity errors : sum local = 4.7964634e-12, global = -3.0781184e-14, cumulative = 2.0963718e-08
ExecutionTime = 35.13 s  ClockTime = 36 s

Time = 3.5

Courant Number mean: 0.00059367736 max: 0.10389154
smoothSolver:  Solving for Ux, Initial residual = 0.00075410124, Final residual = 1.024775e-07, No Iterations 1
smoothSolver:  Solving for Uy, Initial residual = 0.0012016049, Final residual = 1.4673132e-07, No Iterations 1
smoothSolver:  Solving for Uz, Initial residual = 0.0010605923, Final residual = 1.2613806e-07, No Iterations 1
DICPCG:  Solving for p, Initial residual = 0.011919476, Final residual = 0.00054719575, No Iterations 2
DICPCG:  Solving for p, Initial residual = 0.001762206, Final residual = 8.6471748e-05, No Iterations 14
DICPCG:  Solving for p, Initial residual = 0.00051985576, Final residual = 2.4678315e-05, No Iterations 16
time step continuity errors : sum local = 1.2365956e-10, global = 5.1582545e-11, cumulative = 2.1015301e-08
DICPCG:  Solving for p, Initial residual = 0.00024074362, Final residual = 1.193553e-05, No Iterations 138
DICPCG:  Solving for p, Initial residual = 0.00021759732, Final residual = 1.0136065e-05, No Iterations 5
DICPCG:  Solving for p, Initial residual = 5.3865121e-05, Final residual = 9.0358158e-07, No Iterations 166
time step continuity errors : sum local = 4.5244061e-12, global = -1.2107808e-14, cumulative = 2.1015289e-08
ExecutionTime = 36.29 s  ClockTime = 37 s

Time = 3.6

Courant Number mean: 0.0005936828 max: 0.10390076
smoothSolver:  Solving for Ux, Initial residual = 0.00073538246, Final residual = 9.9665191e-08, No Iterations 1
smoothSolver:  Solving for Uy, Initial residual = 0.0011722081, Final residual = 1.4333812e-07, No Iterations 1
smoothSolver:  Solving for Uz, Initial residual = 0.0010342783, Final residual = 1.2332028e-07, No Iterations 1
DICPCG:  Solving for p, Initial residual = 0.011597407, Final residual = 0.00055375482, No Iterations 2
DICPCG:  Solving for p, Initial residual = 0.0017183552, Final residual = 8.4953174e-05, No Iterations 14
DICPCG:  Solving for p, Initial residual = 0.00050646566, Final residual = 2.4344203e-05, No Iterations 16
time step continuity errors : sum local = 1.1954003e-10, global = 5.0513469e-11, cumulative = 2.1065802e-08
DICPCG:  Solving for p, Initial residual = 0.00023308266, Final residual = 1.1284687e-05, No Iterations 144
DICPCG:  Solving for p, Initial residual = 0.00021533913, Final residual = 9.8841763e-06, No Iterations 5
DICPCG:  Solving for p, Initial residual = 5.2957754e-05, Final residual = 9.442445e-07, No Iterations 171
time step continuity errors : sum local = 4.6332999e-12, global = -2.7654795e-14, cumulative = 2.1065774e-08
ExecutionTime = 37.27 s  ClockTime = 38 s

Time = 3.7

Courant Number mean: 0.00059368804 max: 0.10390549
smoothSolver:  Solving for Ux, Initial residual = 0.00071764701, Final residual = 9.6914628e-08, No Iterations 1
smoothSolver:  Solving for Uy, Initial residual = 0.0011435562, Final residual = 1.3996302e-07, No Iterations 1
smoothSolver:  Solving for Uz, Initial residual = 0.0010094686, Final residual = 1.200182e-07, No Iterations 1
DICPCG:  Solving for p, Initial residual = 0.011294033, Final residual = 0.00055434579, No Iterations 3
DICPCG:  Solving for p, Initial residual = 0.0017470517, Final residual = 7.5638667e-05, No Iterations 14
DICPCG:  Solving for p, Initial residual = 0.00048121798, Final residual = 2.213013e-05, No Iterations 146
time step continuity errors : sum local = 1.0657752e-10, global = 9.8818114e-14, cumulative = 2.1065873e-08
DICPCG:  Solving for p, Initial residual = 0.00028453879, Final residual = 1.4031026e-05, No Iterations 6
DICPCG:  Solving for p, Initial residual = 7.6298797e-05, Final residual = 3.7063795e-06, No Iterations 39
DICPCG:  Solving for p, Initial residual = 5.6864792e-05, Final residual = 9.2584301e-07, No Iterations 156
time step continuity errors : sum local = 4.4554204e-12, global = -9.0173881e-15, cumulative = 2.1065864e-08
ExecutionTime = 38.29 s  ClockTime = 39 s

Time = 3.8

Courant Number mean: 0.00059369332 max: 0.10390788
smoothSolver:  Solving for Ux, Initial residual = 0.00070068554, Final residual = 9.4731524e-08, No Iterations 1
smoothSolver:  Solving for Uy, Initial residual = 0.0011160813, Final residual = 1.3657367e-07, No Iterations 1
smoothSolver:  Solving for Uz, Initial residual = 0.0009856367, Final residual = 1.1695966e-07, No Iterations 1
DICPCG:  Solving for p, Initial residual = 0.011118464, Final residual = 0.0005441777, No Iterations 2
DICPCG:  Solving for p, Initial residual = 0.0016660364, Final residual = 8.1315197e-05, No Iterations 14
DICPCG:  Solving for p, Initial residual = 0.00050364694, Final residual = 2.404829e-05, No Iterations 18
time step continuity errors : sum local = 1.1365347e-10, global = 5.4551052e-11, cumulative = 2.1120415e-08
DICPCG:  Solving for p, Initial residual = 0.00023931125, Final residual = 1.0840803e-05, No Iterations 146
DICPCG:  Solving for p, Initial residual = 0.00024203422, Final residual = 1.099307e-05, No Iterations 5
DICPCG:  Solving for p, Initial residual = 5.8485479e-05, Final residual = 9.6643363e-07, No Iterations 171
time step continuity errors : sum local = 4.5638346e-12, global = -2.1045495e-14, cumulative = 2.1120394e-08
ExecutionTime = 39.28 s  ClockTime = 40 s

Time = 3.9

Courant Number mean: 0.00059369841 max: 0.10390271
smoothSolver:  Solving for Ux, Initial residual = 0.00068515797, Final residual = 9.2905395e-08, No Iterations 1
smoothSolver:  Solving for Uy, Initial residual = 0.0010903479, Final residual = 1.3370858e-07, No Iterations 1
smoothSolver:  Solving for Uz, Initial residual = 0.00096298381, Final residual = 1.1433861e-07, No Iterations 1
DICPCG:  Solving for p, Initial residual = 0.010870103, Final residual = 0.00052370616, No Iterations 2
DICPCG:  Solving for p, Initial residual = 0.001604576, Final residual = 7.0883301e-05, No Iterations 15
DICPCG:  Solving for p, Initial residual = 0.00049274981, Final residual = 2.4251294e-05, No Iterations 10
time step continuity errors : sum local = 1.1253573e-10, global = 4.6125462e-11, cumulative = 2.116652e-08
DICPCG:  Solving for p, Initial residual = 0.00019699147, Final residual = 9.7397936e-06, No Iterations 148
DICPCG:  Solving for p, Initial residual = 0.00020021535, Final residual = 8.3252336e-06, No Iterations 5
DICPCG:  Solving for p, Initial residual = 4.8993985e-05, Final residual = 9.8055578e-07, No Iterations 175
time step continuity errors : sum local = 4.5472683e-12, global = -2.3720677e-14, cumulative = 2.1166496e-08
ExecutionTime = 40.27 s  ClockTime = 41 s

Time = 4

Courant Number mean: 0.0005937037 max: 0.10389821
smoothSolver:  Solving for Ux, Initial residual = 0.00066994512, Final residual = 9.152e-08, No Iterations 1
smoothSolver:  Solving for Uy, Initial residual = 0.0010665503, Final residual = 1.3175599e-07, No Iterations 1
smoothSolver:  Solving for Uz, Initial residual = 0.00094183914, Final residual = 1.1221387e-07, No Iterations 1
DICPCG:  Solving for p, Initial residual = 0.010567258, Final residual = 0.00049375277, No Iterations 2
DICPCG:  Solving for p, Initial residual = 0.0015615659, Final residual = 6.9933909e-05, No Iterations 15
DICPCG:  Solving for p, Initial residual = 0.00047820682, Final residual = 2.3578957e-05, No Iterations 10
time step continuity errors : sum local = 1.0749773e-10, global = 4.3972846e-11, cumulative = 2.1210469e-08
DICPCG:  Solving for p, Initial residual = 0.00019202079, Final residual = 9.5130549e-06, No Iterations 144
DICPCG:  Solving for p, Initial residual = 0.00019418866, Final residual = 7.6948062e-06, No Iterations 5
DICPCG:  Solving for p, Initial residual = 4.7268072e-05, Final residual = 9.998219e-07, No Iterations 164
time step continuity errors : sum local = 4.5554173e-12, global = -1.5379357e-14, cumulative = 2.1210453e-08
ExecutionTime = 41.42 s  ClockTime = 42 s

Time = 4.1

Courant Number mean: 0.00059370891 max: 0.10390263
smoothSolver:  Solving for Ux, Initial residual = 0.00065510522, Final residual = 9.0167288e-08, No Iterations 1
smoothSolver:  Solving for Uy, Initial residual = 0.0010440569, Final residual = 1.2918131e-07, No Iterations 1
smoothSolver:  Solving for Uz, Initial residual = 0.00092168999, Final residual = 1.1069517e-07, No Iterations 1
DICPCG:  Solving for p, Initial residual = 0.010200751, Final residual = 0.00049746466, No Iterations 2
DICPCG:  Solving for p, Initial residual = 0.0015031305, Final residual = 7.117197e-05, No Iterations 15
DICPCG:  Solving for p, Initial residual = 0.00047278419, Final residual = 2.3133975e-05, No Iterations 17
time step continuity errors : sum local = 1.0369023e-10, global = 4.4574554e-11, cumulative = 2.1255028e-08
DICPCG:  Solving for p, Initial residual = 0.00022182686, Final residual = 1.1012244e-05, No Iterations 144
DICPCG:  Solving for p, Initial residual = 0.00021308194, Final residual = 9.5656571e-06, No Iterations 5
DICPCG:  Solving for p, Initial residual = 5.1669123e-05, Final residual = 9.9720936e-07, No Iterations 171
time step continuity errors : sum local = 4.4666079e-12, global = -2.8954876e-14, cumulative = 2.1254999e-08
ExecutionTime = 42.41 s  ClockTime = 43 s

Time = 4.2

Courant Number mean: 0.00059371413 max: 0.10390499
smoothSolver:  Solving for Ux, Initial residual = 0.00064108679, Final residual = 8.8281691e-08, No Iterations 1
smoothSolver:  Solving for Uy, Initial residual = 0.0010225482, Final residual = 1.2681766e-07, No Iterations 1
smoothSolver:  Solving for Uz, Initial residual = 0.00090241681, Final residual = 1.0830578e-07, No Iterations 1
DICPCG:  Solving for p, Initial residual = 0.0098717234, Final residual = 0.00041713283, No Iterations 4
DICPCG:  Solving for p, Initial residual = 0.0014757831, Final residual = 6.0199431e-05, No Iterations 14
DICPCG:  Solving for p, Initial residual = 0.00041901855, Final residual = 1.9294183e-05, No Iterations 144
time step continuity errors : sum local = 8.5079584e-11, global = -1.72279e-13, cumulative = 2.1254827e-08
DICPCG:  Solving for p, Initial residual = 0.00026098219, Final residual = 1.0894751e-05, No Iterations 6
DICPCG:  Solving for p, Initial residual = 6.8118278e-05, Final residual = 3.3757705e-06, No Iterations 34
DICPCG:  Solving for p, Initial residual = 4.5714154e-05, Final residual = 9.7733337e-07, No Iterations 150
time step continuity errors : sum local = 4.3068437e-12, global = -1.6907346e-15, cumulative = 2.1254825e-08
ExecutionTime = 43.4 s  ClockTime = 44 s

Time = 4.3

Courant Number mean: 0.00059371966 max: 0.10390535
smoothSolver:  Solving for Ux, Initial residual = 0.00062781534, Final residual = 8.6686721e-08, No Iterations 1
smoothSolver:  Solving for Uy, Initial residual = 0.0010020454, Final residual = 1.2425812e-07, No Iterations 1
smoothSolver:  Solving for Uz, Initial residual = 0.00088390474, Final residual = 1.0581406e-07, No Iterations 1
DICPCG:  Solving for p, Initial residual = 0.0096584668, Final residual = 0.0004461072, No Iterations 3
DICPCG:  Solving for p, Initial residual = 0.0014935499, Final residual = 6.6830163e-05, No Iterations 14
DICPCG:  Solving for p, Initial residual = 0.00043691628, Final residual = 2.1401313e-05, No Iterations 17
time step continuity errors : sum local = 9.2893749e-11, global = 3.4339625e-11, cumulative = 2.1289165e-08
DICPCG:  Solving for p, Initial residual = 0.00020677719, Final residual = 9.8245167e-06, No Iterations 139
DICPCG:  Solving for p, Initial residual = 0.00019202248, Final residual = 8.8913142e-06, No Iterations 5
DICPCG:  Solving for p, Initial residual = 4.6758072e-05, Final residual = 9.9139273e-07, No Iterations 49
time step continuity errors : sum local = 4.3008342e-12, global = -1.0894736e-12, cumulative = 2.1288075e-08
ExecutionTime = 44.13 s  ClockTime = 45 s

Time = 4.4

Courant Number mean: 0.00059372509 max: 0.10390404
smoothSolver:  Solving for Ux, Initial residual = 0.00061514972, Final residual = 8.5362835e-08, No Iterations 1
smoothSolver:  Solving for Uy, Initial residual = 0.00098226412, Final residual = 1.2276393e-07, No Iterations 1
smoothSolver:  Solving for Uz, Initial residual = 0.00086631173, Final residual = 1.0324825e-07, No Iterations 1
DICPCG:  Solving for p, Initial residual = 0.0094658347, Final residual = 0.00044946983, No Iterations 3
DICPCG:  Solving for p, Initial residual = 0.0014594706, Final residual = 6.6997917e-05, No Iterations 14
DICPCG:  Solving for p, Initial residual = 0.00043540023, Final residual = 2.1191463e-05, No Iterations 16
time step continuity errors : sum local = 9.0596233e-11, global = 3.2612086e-11, cumulative = 2.1320687e-08
DICPCG:  Solving for p, Initial residual = 0.00020598271, Final residual = 9.8982987e-06, No Iterations 141
DICPCG:  Solving for p, Initial residual = 0.00017956612, Final residual = 8.19342e-06, No Iterations 5
DICPCG:  Solving for p, Initial residual = 4.3950346e-05, Final residual = 9.7964548e-07, No Iterations 46
time step continuity errors : sum local = 4.1859228e-12, global = -1.0614393e-12, cumulative = 2.1319626e-08
ExecutionTime = 44.86 s  ClockTime = 45 s

Time = 4.5

Courant Number mean: 0.00059373061 max: 0.10390175
smoothSolver:  Solving for Ux, Initial residual = 0.00060290095, Final residual = 8.4472251e-08, No Iterations 1
smoothSolver:  Solving for Uy, Initial residual = 0.00096374403, Final residual = 1.2102631e-07, No Iterations 1
smoothSolver:  Solving for Uz, Initial residual = 0.00084929977, Final residual = 1.011763e-07, No Iterations 1
DICPCG:  Solving for p, Initial residual = 0.0093189882, Final residual = 0.00035797498, No Iterations 4
DICPCG:  Solving for p, Initial residual = 0.0014174214, Final residual = 6.0823426e-05, No Iterations 14
DICPCG:  Solving for p, Initial residual = 0.00042817935, Final residual = 2.0924019e-05, No Iterations 18
time step continuity errors : sum local = 8.8140951e-11, global = 3.0075992e-11, cumulative = 2.1349702e-08
DICPCG:  Solving for p, Initial residual = 0.00020673652, Final residual = 1.0331645e-05, No Iterations 143
DICPCG:  Solving for p, Initial residual = 0.00019062199, Final residual = 9.2399473e-06, No Iterations 5
DICPCG:  Solving for p, Initial residual = 4.6277586e-05, Final residual = 9.7638256e-07, No Iterations 166
time step continuity errors : sum local = 4.1108532e-12, global = 1.7696361e-15, cumulative = 2.1349704e-08
ExecutionTime = 46.04 s  ClockTime = 46 s

Time = 4.6

Courant Number mean: 0.00059373635 max: 0.10389869
smoothSolver:  Solving for Ux, Initial residual = 0.00059105204, Final residual = 8.2976562e-08, No Iterations 1
smoothSolver:  Solving for Uy, Initial residual = 0.00094571195, Final residual = 1.1856924e-07, No Iterations 1
smoothSolver:  Solving for Uz, Initial residual = 0.00083281225, Final residual = 9.9037548e-08, No Iterations 1
DICPCG:  Solving for p, Initial residual = 0.0091428146, Final residual = 0.00037654282, No Iterations 4
DICPCG:  Solving for p, Initial residual = 0.0014119544, Final residual = 6.9729056e-05, No Iterations 13
DICPCG:  Solving for p, Initial residual = 0.00042542902, Final residual = 2.0235378e-05, No Iterations 17
time step continuity errors : sum local = 8.4032792e-11, global = 2.7871325e-11, cumulative = 2.1377575e-08
DICPCG:  Solving for p, Initial residual = 0.00020569575, Final residual = 9.88172e-06, No Iterations 147
DICPCG:  Solving for p, Initial residual = 0.00017450346, Final residual = 8.2800725e-06, No Iterations 5
DICPCG:  Solving for p, Initial residual = 4.3003071e-05, Final residual = 9.2155682e-07, No Iterations 165
time step continuity errors : sum local = 3.8251794e-12, global = 3.3630823e-15, cumulative = 2.1377578e-08
ExecutionTime = 47.03 s  ClockTime = 47 s

Time = 4.7

Courant Number mean: 0.0005937419 max: 0.10389418
smoothSolver:  Solving for Ux, Initial residual = 0.0005800305, Final residual = 8.1409493e-08, No Iterations 1
smoothSolver:  Solving for Uy, Initial residual = 0.00092835377, Final residual = 1.155312e-07, No Iterations 1
smoothSolver:  Solving for Uz, Initial residual = 0.00081737346, Final residual = 9.6776105e-08, No Iterations 1
DICPCG:  Solving for p, Initial residual = 0.0089364519, Final residual = 0.0004430677, No Iterations 3
DICPCG:  Solving for p, Initial residual = 0.0014058747, Final residual = 6.4481384e-05, No Iterations 14
DICPCG:  Solving for p, Initial residual = 0.00043140307, Final residual = 2.0444482e-05, No Iterations 16
time step continuity errors : sum local = 8.3731344e-11, global = 3.2422964e-11, cumulative = 2.1410001e-08
DICPCG:  Solving for p, Initial residual = 0.00020523999, Final residual = 1.0255634e-05, No Iterations 132
DICPCG:  Solving for p, Initial residual = 0.00017679801, Final residual = 8.3649472e-06, No Iterations 5
DICPCG:  Solving for p, Initial residual = 4.3888193e-05, Final residual = 9.175294e-07, No Iterations 166
time step continuity errors : sum local = 3.7557788e-12, global = -6.3091693e-15, cumulative = 2.1409995e-08
ExecutionTime = 47.98 s  ClockTime = 48 s

Time = 4.8

Courant Number mean: 0.00059374779 max: 0.10388787
smoothSolver:  Solving for Ux, Initial residual = 0.00056976151, Final residual = 8.0274299e-08, No Iterations 1
smoothSolver:  Solving for Uy, Initial residual = 0.00091177703, Final residual = 1.1311824e-07, No Iterations 1
smoothSolver:  Solving for Uz, Initial residual = 0.00080246323, Final residual = 9.4736681e-08, No Iterations 1
DICPCG:  Solving for p, Initial residual = 0.0087025817, Final residual = 0.00035879244, No Iterations 4
DICPCG:  Solving for p, Initial residual = 0.0013318495, Final residual = 5.679101e-05, No Iterations 14
DICPCG:  Solving for p, Initial residual = 0.00039981474, Final residual = 1.9440396e-05, No Iterations 141
time step continuity errors : sum local = 7.8547562e-11, global = -5.9859863e-14, cumulative = 2.1409935e-08
DICPCG:  Solving for p, Initial residual = 0.00025086873, Final residual = 1.0679738e-05, No Iterations 6
DICPCG:  Solving for p, Initial residual = 6.6785376e-05, Final residual = 3.0439269e-06, No Iterations 42
DICPCG:  Solving for p, Initial residual = 4.985428e-05, Final residual = 9.778541e-07, No Iterations 138
time step continuity errors : sum local = 3.9485635e-12, global = -2.6545251e-14, cumulative = 2.1409908e-08
ExecutionTime = 48.95 s  ClockTime = 49 s

Time = 4.9

Courant Number mean: 0.00059375355 max: 0.10388004
smoothSolver:  Solving for Ux, Initial residual = 0.00055967105, Final residual = 7.9323381e-08, No Iterations 1
smoothSolver:  Solving for Uy, Initial residual = 0.00089566066, Final residual = 1.1077121e-07, No Iterations 1
smoothSolver:  Solving for Uz, Initial residual = 0.00078839269, Final residual = 9.3236197e-08, No Iterations 1
DICPCG:  Solving for p, Initial residual = 0.0085933191, Final residual = 0.00035059887, No Iterations 4
DICPCG:  Solving for p, Initial residual = 0.0013231257, Final residual = 5.8539274e-05, No Iterations 14
DICPCG:  Solving for p, Initial residual = 0.00040789119, Final residual = 2.00699e-05, No Iterations 131
time step continuity errors : sum local = 8.0028311e-11, global = -6.4460689e-14, cumulative = 2.1409844e-08
DICPCG:  Solving for p, Initial residual = 0.00026091694, Final residual = 1.1501764e-05, No Iterations 6
DICPCG:  Solving for p, Initial residual = 6.8901892e-05, Final residual = 3.4241535e-06, No Iterations 31
DICPCG:  Solving for p, Initial residual = 4.4881196e-05, Final residual = 9.3949507e-07, No Iterations 156
time step continuity errors : sum local = 3.7439118e-12, global = -5.7103772e-15, cumulative = 2.1409838e-08
ExecutionTime = 49.92 s  ClockTime = 50 s

Time = 5

Courant Number mean: 0.00059375929 max: 0.10387004
smoothSolver:  Solving for Ux, Initial residual = 0.00054980287, Final residual = 7.7984951e-08, No Iterations 1
smoothSolver:  Solving for Uy, Initial residual = 0.00088023363, Final residual = 1.0852071e-07, No Iterations 1
smoothSolver:  Solving for Uz, Initial residual = 0.00077487828, Final residual = 9.1672848e-08, No Iterations 1
DICPCG:  Solving for p, Initial residual = 0.0083348669, Final residual = 0.00038284998, No Iterations 4
DICPCG:  Solving for p, Initial residual = 0.0012828609, Final residual = 5.4716295e-05, No Iterations 14
DICPCG:  Solving for p, Initial residual = 0.00038701691, Final residual = 1.8854422e-05, No Iterations 19
time step continuity errors : sum local = 7.42376e-11, global = 2.9711254e-11, cumulative = 2.143955e-08
DICPCG:  Solving for p, Initial residual = 0.00018795628, Final residual = 9.3064577e-06, No Iterations 139
DICPCG:  Solving for p, Initial residual = 0.00016919552, Final residual = 7.0226647e-06, No Iterations 6
DICPCG:  Solving for p, Initial residual = 4.1627647e-05, Final residual = 9.0799827e-07, No Iterations 164
time step continuity errors : sum local = 3.5733852e-12, global = -1.6258065e-14, cumulative = 2.1439533e-08
ExecutionTime = 51.09 s  ClockTime = 51 s

Time = 5.1

Courant Number mean: 0.00059376529 max: 0.1038577
smoothSolver:  Solving for Ux, Initial residual = 0.00054040634, Final residual = 7.6751336e-08, No Iterations 1
smoothSolver:  Solving for Uy, Initial residual = 0.00086556609, Final residual = 1.0619655e-07, No Iterations 1
smoothSolver:  Solving for Uz, Initial residual = 0.00076187185, Final residual = 9.0313118e-08, No Iterations 1
DICPCG:  Solving for p, Initial residual = 0.0081396529, Final residual = 0.00036719535, No Iterations 4
DICPCG:  Solving for p, Initial residual = 0.0012465065, Final residual = 5.2882887e-05, No Iterations 14
DICPCG:  Solving for p, Initial residual = 0.00037301694, Final residual = 1.7719578e-05, No Iterations 18
time step continuity errors : sum local = 6.8934793e-11, global = 2.7471701e-11, cumulative = 2.1467005e-08
DICPCG:  Solving for p, Initial residual = 0.00017847753, Final residual = 8.7685852e-06, No Iterations 134
DICPCG:  Solving for p, Initial residual = 0.00016339479, Final residual = 6.7109987e-06, No Iterations 6
DICPCG:  Solving for p, Initial residual = 3.9808165e-05, Final residual = 9.8609876e-07, No Iterations 53
time step continuity errors : sum local = 3.8344363e-12, global = -9.8506273e-13, cumulative = 2.146602e-08
ExecutionTime = 51.83 s  ClockTime = 52 s

Time = 5.2

Courant Number mean: 0.00059377196 max: 0.10384209
smoothSolver:  Solving for Ux, Initial residual = 0.00053125016, Final residual = 7.5556771e-08, No Iterations 1
smoothSolver:  Solving for Uy, Initial residual = 0.00085133238, Final residual = 1.0395689e-07, No Iterations 1
smoothSolver:  Solving for Uz, Initial residual = 0.00074906085, Final residual = 8.9184394e-08, No Iterations 1
DICPCG:  Solving for p, Initial residual = 0.0079929121, Final residual = 0.00038131352, No Iterations 4
DICPCG:  Solving for p, Initial residual = 0.0012436303, Final residual = 5.2279198e-05, No Iterations 14
DICPCG:  Solving for p, Initial residual = 0.00036577282, Final residual = 1.7763841e-05, No Iterations 17
time step continuity errors : sum local = 6.8295323e-11, global = 2.3181904e-11, cumulative = 2.1489202e-08
DICPCG:  Solving for p, Initial residual = 0.00017506966, Final residual = 8.5903914e-06, No Iterations 143
DICPCG:  Solving for p, Initial residual = 0.00014113694, Final residual = 5.9304974e-06, No Iterations 6
DICPCG:  Solving for p, Initial residual = 3.5255453e-05, Final residual = 9.8176531e-07, No Iterations 163
time step continuity errors : sum local = 3.7730003e-12, global = -1.0517356e-14, cumulative = 2.1489191e-08
ExecutionTime = 52.81 s  ClockTime = 53 s

Time = 5.3

Courant Number mean: 0.00059377931 max: 0.1038237
smoothSolver:  Solving for Ux, Initial residual = 0.00052223669, Final residual = 7.4234469e-08, No Iterations 1
smoothSolver:  Solving for Uy, Initial residual = 0.00083774013, Final residual = 1.0161249e-07, No Iterations 1
smoothSolver:  Solving for Uz, Initial residual = 0.00073661579, Final residual = 8.7798696e-08, No Iterations 1
DICPCG:  Solving for p, Initial residual = 0.0077867581, Final residual = 0.00029111754, No Iterations 5
DICPCG:  Solving for p, Initial residual = 0.0011673058, Final residual = 5.0147162e-05, No Iterations 14
DICPCG:  Solving for p, Initial residual = 0.00033703029, Final residual = 1.6049612e-05, No Iterations 21
time step continuity errors : sum local = 6.1016225e-11, global = 2.4053502e-11, cumulative = 2.1513245e-08
DICPCG:  Solving for p, Initial residual = 0.00016195883, Final residual = 7.8923721e-06, No Iterations 142
DICPCG:  Solving for p, Initial residual = 0.00014877679, Final residual = 6.3244798e-06, No Iterations 6
DICPCG:  Solving for p, Initial residual = 3.6757674e-05, Final residual = 8.8155323e-07, No Iterations 162
time step continuity errors : sum local = 3.3499486e-12, global = -1.4629036e-14, cumulative = 2.151323e-08
ExecutionTime = 53.77 s  ClockTime = 54 s

Time = 5.4

Courant Number mean: 0.00059378709 max: 0.10380264
smoothSolver:  Solving for Ux, Initial residual = 0.00051357806, Final residual = 7.2818939e-08, No Iterations 1
smoothSolver:  Solving for Uy, Initial residual = 0.00082446125, Final residual = 9.9351737e-08, No Iterations 1
smoothSolver:  Solving for Uz, Initial residual = 0.00072461537, Final residual = 8.6253825e-08, No Iterations 1
DICPCG:  Solving for p, Initial residual = 0.0077235766, Final residual = 0.00038477606, No Iterations 4
DICPCG:  Solving for p, Initial residual = 0.0012271239, Final residual = 4.9782459e-05, No Iterations 14
DICPCG:  Solving for p, Initial residual = 0.00035953089, Final residual = 1.7845651e-05, No Iterations 16
time step continuity errors : sum local = 6.7101719e-11, global = 2.5308727e-11, cumulative = 2.1538539e-08
DICPCG:  Solving for p, Initial residual = 0.00016623338, Final residual = 8.0905386e-06, No Iterations 143
DICPCG:  Solving for p, Initial residual = 0.00015069597, Final residual = 6.0617107e-06, No Iterations 6
DICPCG:  Solving for p, Initial residual = 3.680262e-05, Final residual = 9.5721158e-07, No Iterations 164
time step continuity errors : sum local = 3.5976322e-12, global = -1.3464076e-14, cumulative = 2.1538525e-08
ExecutionTime = 54.77 s  ClockTime = 55 s

Time = 5.5

Courant Number mean: 0.00059379557 max: 0.10377857
smoothSolver:  Solving for Ux, Initial residual = 0.0005049762, Final residual = 7.1158143e-08, No Iterations 1
smoothSolver:  Solving for Uy, Initial residual = 0.00081155547, Final residual = 9.6905931e-08, No Iterations 1
smoothSolver:  Solving for Uz, Initial residual = 0.00071306288, Final residual = 8.4570877e-08, No Iterations 1
DICPCG:  Solving for p, Initial residual = 0.0074358783, Final residual = 0.0002901729, No Iterations 5
DICPCG:  Solving for p, Initial residual = 0.0011382741, Final residual = 5.0503814e-05, No Iterations 14
DICPCG:  Solving for p, Initial residual = 0.0003352877, Final residual = 1.6751566e-05, No Iterations 21
time step continuity errors : sum local = 6.2319441e-11, global = 2.4440167e-11, cumulative = 2.1562966e-08
DICPCG:  Solving for p, Initial residual = 0.00016235279, Final residual = 7.9826277e-06, No Iterations 143
DICPCG:  Solving for p, Initial residual = 0.00015336768, Final residual = 6.5499238e-06, No Iterations 6
DICPCG:  Solving for p, Initial residual = 3.7793961e-05, Final residual = 9.8030101e-07, No Iterations 161
time step continuity errors : sum local = 3.6452918e-12, global = -1.028886e-14, cumulative = 2.1562955e-08
ExecutionTime = 55.96 s  ClockTime = 56 s

Time = 5.6

Courant Number mean: 0.00059380449 max: 0.10375203
smoothSolver:  Solving for Ux, Initial residual = 0.00049709825, Final residual = 6.9785552e-08, No Iterations 1
smoothSolver:  Solving for Uy, Initial residual = 0.00079914789, Final residual = 9.427166e-08, No Iterations 1
smoothSolver:  Solving for Uz, Initial residual = 0.00070223871, Final residual = 8.293971e-08, No Iterations 1
DICPCG:  Solving for p, Initial residual = 0.0073071431, Final residual = 0.00026809502, No Iterations 5
DICPCG:  Solving for p, Initial residual = 0.0011074743, Final residual = 4.7340795e-05, No Iterations 14
DICPCG:  Solving for p, Initial residual = 0.00032300783, Final residual = 1.5525337e-05, No Iterations 142
time step continuity errors : sum local = 5.7157189e-11, global = -8.4635141e-14, cumulative = 2.1562871e-08
DICPCG:  Solving for p, Initial residual = 0.00020220052, Final residual = 8.1190138e-06, No Iterations 6
DICPCG:  Solving for p, Initial residual = 5.2810892e-05, Final residual = 2.5401977e-06, No Iterations 41
DICPCG:  Solving for p, Initial residual = 3.7986449e-05, Final residual = 9.4736678e-07, No Iterations 47
time step continuity errors : sum local = 3.4861298e-12, global = -3.2228248e-13, cumulative = 2.1562548e-08
ExecutionTime = 56.75 s  ClockTime = 57 s

Time = 5.7

Courant Number mean: 0.0005938138 max: 0.10372302
smoothSolver:  Solving for Ux, Initial residual = 0.00048955925, Final residual = 6.8710613e-08, No Iterations 1
smoothSolver:  Solving for Uy, Initial residual = 0.00078731853, Final residual = 9.1685732e-08, No Iterations 1
smoothSolver:  Solving for Uz, Initial residual = 0.0006918166, Final residual = 8.1492165e-08, No Iterations 1
DICPCG:  Solving for p, Initial residual = 0.0070319663, Final residual = 0.00026553011, No Iterations 5
DICPCG:  Solving for p, Initial residual = 0.0010547081, Final residual = 4.8181452e-05, No Iterations 14
DICPCG:  Solving for p, Initial residual = 0.00031816553, Final residual = 1.5039522e-05, No Iterations 142
time step continuity errors : sum local = 5.4806941e-11, global = -8.7204597e-14, cumulative = 2.1562461e-08
DICPCG:  Solving for p, Initial residual = 0.00020248531, Final residual = 8.2951854e-06, No Iterations 6
DICPCG:  Solving for p, Initial residual = 5.2505296e-05, Final residual = 2.5503653e-06, No Iterations 42
DICPCG:  Solving for p, Initial residual = 3.8308657e-05, Final residual = 9.4269683e-07, No Iterations 50
time step continuity errors : sum local = 3.4336981e-12, global = -3.6688261e-13, cumulative = 2.1562094e-08
ExecutionTime = 57.54 s  ClockTime = 58 s

Time = 5.8

Courant Number mean: 0.00059382346 max: 0.10369183
smoothSolver:  Solving for Ux, Initial residual = 0.00048209711, Final residual = 6.7723046e-08, No Iterations 1
smoothSolver:  Solving for Uy, Initial residual = 0.00077624759, Final residual = 8.9685685e-08, No Iterations 1
smoothSolver:  Solving for Uz, Initial residual = 0.00068197887, Final residual = 8.031507e-08, No Iterations 1
DICPCG:  Solving for p, Initial residual = 0.0069825317, Final residual = 0.00033962757, No Iterations 4
DICPCG:  Solving for p, Initial residual = 0.0010915056, Final residual = 4.7088028e-05, No Iterations 14
DICPCG:  Solving for p, Initial residual = 0.00032569312, Final residual = 1.5398883e-05, No Iterations 145
time step continuity errors : sum local = 5.5545661e-11, global = -9.8451256e-15, cumulative = 2.1562084e-08
DICPCG:  Solving for p, Initial residual = 0.00020555862, Final residual = 8.6077035e-06, No Iterations 6
DICPCG:  Solving for p, Initial residual = 5.3493026e-05, Final residual = 2.6248602e-06, No Iterations 38
DICPCG:  Solving for p, Initial residual = 3.6658172e-05, Final residual = 9.813808e-07, No Iterations 47
time step continuity errors : sum local = 3.5383005e-12, global = -4.9669309e-13, cumulative = 2.1561588e-08
ExecutionTime = 58.33 s  ClockTime = 59 s

Time = 5.9

Courant Number mean: 0.00059383375 max: 0.10365875
smoothSolver:  Solving for Ux, Initial residual = 0.00047482164, Final residual = 6.6647508e-08, No Iterations 1
smoothSolver:  Solving for Uy, Initial residual = 0.00076540282, Final residual = 8.7881226e-08, No Iterations 1
smoothSolver:  Solving for Uz, Initial residual = 0.00067267647, Final residual = 7.9300239e-08, No Iterations 1
DICPCG:  Solving for p, Initial residual = 0.0067983861, Final residual = 0.0003391659, No Iterations 4
DICPCG:  Solving for p, Initial residual = 0.001067672, Final residual = 4.6313134e-05, No Iterations 14
DICPCG:  Solving for p, Initial residual = 0.00032107842, Final residual = 1.5423432e-05, No Iterations 132
time step continuity errors : sum local = 5.5083049e-11, global = 1.8500589e-14, cumulative = 2.1561606e-08
DICPCG:  Solving for p, Initial residual = 0.00021808345, Final residual = 9.1723755e-06, No Iterations 6
DICPCG:  Solving for p, Initial residual = 5.5721417e-05, Final residual = 2.717389e-06, No Iterations 35
DICPCG:  Solving for p, Initial residual = 3.96402e-05, Final residual = 9.6028835e-07, No Iterations 60
time step continuity errors : sum local = 3.4277296e-12, global = -6.1005479e-13, cumulative = 2.1560996e-08
ExecutionTime = 59.1 s  ClockTime = 60 s

Time = 6

Courant Number mean: 0.00059384423 max: 0.10362352
smoothSolver:  Solving for Ux, Initial residual = 0.00046782066, Final residual = 6.5554788e-08, No Iterations 1
smoothSolver:  Solving for Uy, Initial residual = 0.00075499156, Final residual = 8.6096972e-08, No Iterations 1
smoothSolver:  Solving for Uz, Initial residual = 0.00066357756, Final residual = 7.83946e-08, No Iterations 1
DICPCG:  Solving for p, Initial residual = 0.0066621736, Final residual = 0.00032693675, No Iterations 3
DICPCG:  Solving for p, Initial residual = 0.0010372371, Final residual = 5.1493806e-05, No Iterations 14
DICPCG:  Solving for p, Initial residual = 0.00032437769, Final residual = 1.544265e-05, No Iterations 148
time step continuity errors : sum local = 5.4618384e-11, global = 3.0983921e-14, cumulative = 2.1561027e-08
DICPCG:  Solving for p, Initial residual = 0.00020426942, Final residual = 9.8698967e-06, No Iterations 6
DICPCG:  Solving for p, Initial residual = 5.423492e-05, Final residual = 2.6076636e-06, No Iterations 33
DICPCG:  Solving for p, Initial residual = 3.321029e-05, Final residual = 9.9406578e-07, No Iterations 149
time step continuity errors : sum local = 3.5141484e-12, global = -3.2746848e-15, cumulative = 2.1561024e-08
ExecutionTime = 60.3 s  ClockTime = 61 s

Time = 6.1

Courant Number mean: 0.00059385517 max: 0.1035865
smoothSolver:  Solving for Ux, Initial residual = 0.00046098652, Final residual = 6.4724783e-08, No Iterations 1
smoothSolver:  Solving for Uy, Initial residual = 0.00074445518, Final residual = 8.3552958e-08, No Iterations 1
smoothSolver:  Solving for Uz, Initial residual = 0.00065473219, Final residual = 7.8105349e-08, No Iterations 1
DICPCG:  Solving for p, Initial residual = 0.0064789774, Final residual = 0.00031698991, No Iterations 4
DICPCG:  Solving for p, Initial residual = 0.00098943585, Final residual = 4.5857083e-05, No Iterations 14
DICPCG:  Solving for p, Initial residual = 0.00030352089, Final residual = 1.4771985e-05, No Iterations 142
time step continuity errors : sum local = 5.1762865e-11, global = 1.5356853e-14, cumulative = 2.1561039e-08
DICPCG:  Solving for p, Initial residual = 0.00020700206, Final residual = 8.1950748e-06, No Iterations 6
DICPCG:  Solving for p, Initial residual = 5.3287218e-05, Final residual = 2.6494295e-06, No Iterations 35
[...]
DICPCG:  Solving for p, Initial residual = 1.5824025e-05, Final residual = 9.9874482e-07, No Iterations 151
DICPCG:  Solving for p, Initial residual = 1.1238651e-05, Final residual = 8.6776922e-07, No Iterations 3
time step continuity errors : sum local = 1.9424511e-12, global = -1.8334474e-17, cumulative = 2.1625221e-08
ExecutionTime = 147.09 s  ClockTime = 148 s

Time = 18.6

Courant Number mean: 0.00059535669 max: 0.10183375
smoothSolver:  Solving for Ux, Initial residual = 0.00019507849, Final residual = 1.786128e-08, No Iterations 1
smoothSolver:  Solving for Uy, Initial residual = 0.00034240963, Final residual = 2.7922545e-08, No Iterations 1
smoothSolver:  Solving for Uz, Initial residual = 0.00034172291, Final residual = 2.4099406e-08, No Iterations 1
DICPCG:  Solving for p, Initial residual = 0.0017892361, Final residual = 7.7429445e-05, No Iterations 2
DICPCG:  Solving for p, Initial residual = 0.00026890116, Final residual = 1.2661678e-05, No Iterations 7
DICPCG:  Solving for p, Initial residual = 8.3287321e-05, Final residual = 3.8358578e-06, No Iterations 15
time step continuity errors : sum local = 8.5746477e-12, global = -4.9824636e-15, cumulative = 2.1625216e-08
DICPCG:  Solving for p, Initial residual = 3.9989027e-05, Final residual = 1.9373798e-06, No Iterations 16
DICPCG:  Solving for p, Initial residual = 1.6265233e-05, Final residual = 8.8720065e-07, No Iterations 28
DICPCG:  Solving for p, Initial residual = 9.4444453e-06, Final residual = 8.4512074e-07, No Iterations 3
time step continuity errors : sum local = 1.8891752e-12, global = -6.5346219e-14, cumulative = 2.1625151e-08
ExecutionTime = 147.5 s  ClockTime = 148 s

Time = 18.7

Courant Number mean: 0.00059537135 max: 0.10184063
smoothSolver:  Solving for Ux, Initial residual = 0.00019443042, Final residual = 1.7746001e-08, No Iterations 1
smoothSolver:  Solving for Uy, Initial residual = 0.00034151382, Final residual = 2.766044e-08, No Iterations 1
smoothSolver:  Solving for Uz, Initial residual = 0.00034104821, Final residual = 2.4007665e-08, No Iterations 1
DICPCG:  Solving for p, Initial residual = 0.0017408461, Final residual = 7.1085804e-05, No Iterations 2
DICPCG:  Solving for p, Initial residual = 0.00025051416, Final residual = 1.1842423e-05, No Iterations 6
DICPCG:  Solving for p, Initial residual = 6.8225822e-05, Final residual = 3.1499624e-06, No Iterations 17
time step continuity errors : sum local = 7.0322849e-12, global = 2.1519128e-13, cumulative = 2.1625366e-08
DICPCG:  Solving for p, Initial residual = 3.6184199e-05, Final residual = 1.7454512e-06, No Iterations 26
DICPCG:  Solving for p, Initial residual = 1.699189e-05, Final residual = 9.4815559e-07, No Iterations 11
DICPCG:  Solving for p, Initial residual = 5.7376592e-06, Final residual = 8.5236178e-07, No Iterations 2
time step continuity errors : sum local = 1.9028763e-12, global = 2.6132568e-13, cumulative = 2.1625627e-08
ExecutionTime = 147.89 s  ClockTime = 148 s

Time = 18.8

Courant Number mean: 0.00059538609 max: 0.10184782
smoothSolver:  Solving for Ux, Initial residual = 0.00019373588, Final residual = 1.7645002e-08, No Iterations 1
smoothSolver:  Solving for Uy, Initial residual = 0.00034053647, Final residual = 2.7446853e-08, No Iterations 1
smoothSolver:  Solving for Uz, Initial residual = 0.00034031667, Final residual = 2.3951913e-08, No Iterations 1
DICPCG:  Solving for p, Initial residual = 0.001764604, Final residual = 8.73326e-05, No Iterations 2
DICPCG:  Solving for p, Initial residual = 0.00027141846, Final residual = 1.3519223e-05, No Iterations 10
DICPCG:  Solving for p, Initial residual = 8.8406535e-05, Final residual = 4.3115652e-06, No Iterations 142
time step continuity errors : sum local = 9.6126872e-12, global = 4.4671221e-14, cumulative = 2.1625672e-08
DICPCG:  Solving for p, Initial residual = 6.9561259e-05, Final residual = 3.0555204e-06, No Iterations 6
DICPCG:  Solving for p, Initial residual = 1.8493327e-05, Final residual = 9.4843506e-07, No Iterations 29
DICPCG:  Solving for p, Initial residual = 1.1145926e-05, Final residual = 9.2435486e-07, No Iterations 3
time step continuity errors : sum local = 2.0606946e-12, global = -1.2876991e-13, cumulative = 2.1625543e-08
ExecutionTime = 148.54 s  ClockTime = 149 s

Time = 18.9

Courant Number mean: 0.00059540082 max: 0.10185501
smoothSolver:  Solving for Ux, Initial residual = 0.00019299539, Final residual = 1.7576371e-08, No Iterations 1
smoothSolver:  Solving for Uy, Initial residual = 0.00033960173, Final residual = 2.7267591e-08, No Iterations 1
smoothSolver:  Solving for Uz, Initial residual = 0.00033954072, Final residual = 2.3898229e-08, No Iterations 1
DICPCG:  Solving for p, Initial residual = 0.0017261681, Final residual = 6.9152958e-05, No Iterations 2
DICPCG:  Solving for p, Initial residual = 0.00024454936, Final residual = 1.2206792e-05, No Iterations 10
DICPCG:  Solving for p, Initial residual = 7.3464959e-05, Final residual = 3.3769214e-06, No Iterations 14
time step continuity errors : sum local = 7.5188046e-12, global = -9.8831015e-13, cumulative = 2.1624555e-08
DICPCG:  Solving for p, Initial residual = 3.1732523e-05, Final residual = 1.5508676e-06, No Iterations 30
DICPCG:  Solving for p, Initial residual = 1.664978e-05, Final residual = 9.5804989e-07, No Iterations 135
DICPCG:  Solving for p, Initial residual = 1.2583944e-05, Final residual = 8.4969468e-07, No Iterations 4
time step continuity errors : sum local = 1.8919057e-12, global = 1.3662227e-14, cumulative = 2.1624569e-08
ExecutionTime = 149.21 s  ClockTime = 150 s

Time = 19

Courant Number mean: 0.00059541561 max: 0.10186245
smoothSolver:  Solving for Ux, Initial residual = 0.00019233078, Final residual = 1.7506634e-08, No Iterations 1
smoothSolver:  Solving for Uy, Initial residual = 0.00033869756, Final residual = 2.7108891e-08, No Iterations 1
smoothSolver:  Solving for Uz, Initial residual = 0.00033883225, Final residual = 2.3828514e-08, No Iterations 1
DICPCG:  Solving for p, Initial residual = 0.0017633691, Final residual = 6.4033498e-05, No Iterations 2
DICPCG:  Solving for p, Initial residual = 0.00025670068, Final residual = 1.1955135e-05, No Iterations 5
DICPCG:  Solving for p, Initial residual = 7.1911176e-05, Final residual = 3.3370219e-06, No Iterations 32
time step continuity errors : sum local = 7.4217714e-12, global = -1.1726972e-12, cumulative = 2.1623396e-08
DICPCG:  Solving for p, Initial residual = 4.8383016e-05, Final residual = 2.2200383e-06, No Iterations 6
DICPCG:  Solving for p, Initial residual = 1.3359757e-05, Final residual = 9.9130561e-07, No Iterations 150
DICPCG:  Solving for p, Initial residual = 1.6144458e-05, Final residual = 9.3265985e-07, No Iterations 4
time step continuity errors : sum local = 2.0743478e-12, global = 5.955331e-15, cumulative = 2.1623402e-08
ExecutionTime = 150.1 s  ClockTime = 151 s

Time = 19.1

Courant Number mean: 0.00059543035 max: 0.10186998
smoothSolver:  Solving for Ux, Initial residual = 0.00019171995, Final residual = 1.7394268e-08, No Iterations 1
smoothSolver:  Solving for Uy, Initial residual = 0.00033791925, Final residual = 2.6909644e-08, No Iterations 1
smoothSolver:  Solving for Uz, Initial residual = 0.00033815705, Final residual = 2.3780899e-08, No Iterations 1
DICPCG:  Solving for p, Initial residual = 0.0017201962, Final residual = 6.6117813e-05, No Iterations 2
DICPCG:  Solving for p, Initial residual = 0.00024028367, Final residual = 1.1434612e-05, No Iterations 5
DICPCG:  Solving for p, Initial residual = 6.4680754e-05, Final residual = 3.1537366e-06, No Iterations 31
time step continuity errors : sum local = 7.0060178e-12, global = -9.7550088e-13, cumulative = 2.1622426e-08
DICPCG:  Solving for p, Initial residual = 4.05539e-05, Final residual = 1.9237036e-06, No Iterations 6
DICPCG:  Solving for p, Initial residual = 1.1179156e-05, Final residual = 9.8663298e-07, No Iterations 144
DICPCG:  Solving for p, Initial residual = 1.357067e-05, Final residual = 8.6952801e-07, No Iterations 4
time step continuity errors : sum local = 1.9316896e-12, global = 1.6470154e-14, cumulative = 2.1622443e-08
ExecutionTime = 150.75 s  ClockTime = 151 s

Time = 19.2

Courant Number mean: 0.00059544525 max: 0.10187774
smoothSolver:  Solving for Ux, Initial residual = 0.00019108386, Final residual = 1.730495e-08, No Iterations 1
smoothSolver:  Solving for Uy, Initial residual = 0.0003371183, Final residual = 2.6690952e-08, No Iterations 1
smoothSolver:  Solving for Uz, Initial residual = 0.00033741657, Final residual = 2.374378e-08, No Iterations 1
DICPCG:  Solving for p, Initial residual = 0.0017260469, Final residual = 7.7436172e-05, No Iterations 2
DICPCG:  Solving for p, Initial residual = 0.00025177702, Final residual = 1.1288735e-05, No Iterations 6
DICPCG:  Solving for p, Initial residual = 6.8648178e-05, Final residual = 3.2546159e-06, No Iterations 15
time step continuity errors : sum local = 7.2217855e-12, global = -2.250465e-13, cumulative = 2.1622218e-08
DICPCG:  Solving for p, Initial residual = 3.3475581e-05, Final residual = 1.6724637e-06, No Iterations 27
DICPCG:  Solving for p, Initial residual = 1.6686561e-05, Final residual = 9.8275707e-07, No Iterations 10
DICPCG:  Solving for p, Initial residual = 5.2643127e-06, Final residual = 8.466822e-07, No Iterations 2
time step continuity errors : sum local = 1.8787217e-12, global = -2.8203985e-13, cumulative = 2.1621936e-08
ExecutionTime = 151.14 s  ClockTime = 152 s

Time = 19.3

Courant Number mean: 0.00059546022 max: 0.10188562
smoothSolver:  Solving for Ux, Initial residual = 0.00019047223, Final residual = 1.7175105e-08, No Iterations 1
smoothSolver:  Solving for Uy, Initial residual = 0.00033627845, Final residual = 2.6511251e-08, No Iterations 1
smoothSolver:  Solving for Uz, Initial residual = 0.00033665259, Final residual = 2.373307e-08, No Iterations 1
DICPCG:  Solving for p, Initial residual = 0.0017323488, Final residual = 8.1099481e-05, No Iterations 2
DICPCG:  Solving for p, Initial residual = 0.00025040698, Final residual = 1.1647917e-05, No Iterations 5
DICPCG:  Solving for p, Initial residual = 6.664439e-05, Final residual = 2.9487324e-06, No Iterations 15
time step continuity errors : sum local = 6.5349818e-12, global = 5.298473e-13, cumulative = 2.1622466e-08
DICPCG:  Solving for p, Initial residual = 3.4821773e-05, Final residual = 1.6990077e-06, No Iterations 14
DICPCG:  Solving for p, Initial residual = 1.2657592e-05, Final residual = 9.9514185e-07, No Iterations 47
DICPCG:  Solving for p, Initial residual = 1.0224818e-05, Final residual = 8.580059e-07, No Iterations 3
time step continuity errors : sum local = 1.9015141e-12, global = 4.6135909e-13, cumulative = 2.1622927e-08
ExecutionTime = 151.57 s  ClockTime = 152 s

Time = 19.4

Courant Number mean: 0.00059547543 max: 0.10189367
smoothSolver:  Solving for Ux, Initial residual = 0.00018988344, Final residual = 1.7048544e-08, No Iterations 1
smoothSolver:  Solving for Uy, Initial residual = 0.00033542166, Final residual = 2.6338082e-08, No Iterations 1
smoothSolver:  Solving for Uz, Initial residual = 0.0003359497, Final residual = 2.370641e-08, No Iterations 1
DICPCG:  Solving for p, Initial residual = 0.0018039307, Final residual = 8.6077903e-05, No Iterations 2
DICPCG:  Solving for p, Initial residual = 0.00027304382, Final residual = 1.3046387e-05, No Iterations 8
DICPCG:  Solving for p, Initial residual = 8.8047547e-05, Final residual = 4.2677736e-06, No Iterations 128
time step continuity errors : sum local = 9.4448082e-12, global = -5.7177607e-15, cumulative = 2.1622921e-08
DICPCG:  Solving for p, Initial residual = 7.4343547e-05, Final residual = 2.9267004e-06, No Iterations 6
DICPCG:  Solving for p, Initial residual = 1.8806711e-05, Final residual = 9.9350221e-07, No Iterations 48
DICPCG:  Solving for p, Initial residual = 1.2277109e-05, Final residual = 9.0397986e-07, No Iterations 3
time step continuity errors : sum local = 2.0002193e-12, global = -3.2905949e-13, cumulative = 2.1622592e-08
ExecutionTime = 152.24 s  ClockTime = 153 s

Time = 19.5

Courant Number mean: 0.00059549072 max: 0.10190172
smoothSolver:  Solving for Ux, Initial residual = 0.00018919914, Final residual = 1.6799149e-08, No Iterations 1
smoothSolver:  Solving for Uy, Initial residual = 0.00033426639, Final residual = 2.6182821e-08, No Iterations 1
smoothSolver:  Solving for Uz, Initial residual = 0.00033514104, Final residual = 2.3665013e-08, No Iterations 1
DICPCG:  Solving for p, Initial residual = 0.0017546815, Final residual = 7.5196397e-05, No Iterations 2
DICPCG:  Solving for p, Initial residual = 0.0002544199, Final residual = 1.2633937e-05, No Iterations 8
DICPCG:  Solving for p, Initial residual = 8.1717399e-05, Final residual = 4.0287389e-06, No Iterations 132
time step continuity errors : sum local = 8.9027423e-12, global = 3.5351003e-14, cumulative = 2.1622628e-08
DICPCG:  Solving for p, Initial residual = 5.7259871e-05, Final residual = 2.8209407e-06, No Iterations 6
DICPCG:  Solving for p, Initial residual = 1.5456538e-05, Final residual = 9.7296792e-07, No Iterations 59
DICPCG:  Solving for p, Initial residual = 1.6695388e-05, Final residual = 8.0558334e-07, No Iterations 4
time step continuity errors : sum local = 1.7800228e-12, global = -1.7829679e-13, cumulative = 2.1622449e-08
ExecutionTime = 153.14 s  ClockTime = 154 s

Time = 19.6

Courant Number mean: 0.00059550632 max: 0.10190993
smoothSolver:  Solving for Ux, Initial residual = 0.00018868987, Final residual = 1.6659809e-08, No Iterations 1
smoothSolver:  Solving for Uy, Initial residual = 0.0003332249, Final residual = 2.6091042e-08, No Iterations 1
smoothSolver:  Solving for Uz, Initial residual = 0.00033437279, Final residual = 2.3662151e-08, No Iterations 1
DICPCG:  Solving for p, Initial residual = 0.0018179066, Final residual = 6.4609741e-05, No Iterations 3
DICPCG:  Solving for p, Initial residual = 0.00028787603, Final residual = 1.3226559e-05, No Iterations 9
DICPCG:  Solving for p, Initial residual = 9.0934814e-05, Final residual = 4.5422539e-06, No Iterations 144
time step continuity errors : sum local = 1.0022943e-11, global = 3.8359764e-16, cumulative = 2.162245e-08
DICPCG:  Solving for p, Initial residual = 6.9620526e-05, Final residual = 3.1995376e-06, No Iterations 6
DICPCG:  Solving for p, Initial residual = 1.8726864e-05, Final residual = 9.8651524e-07, No Iterations 55
DICPCG:  Solving for p, Initial residual = 1.6594236e-05, Final residual = 8.074363e-07, No Iterations 4
time step continuity errors : sum local = 1.7814338e-12, global = -2.8604218e-13, cumulative = 2.1622164e-08
ExecutionTime = 153.86 s  ClockTime = 154 s

Time = 19.7

Courant Number mean: 0.00059552189 max: 0.10191826
smoothSolver:  Solving for Ux, Initial residual = 0.00018808219, Final residual = 1.6552204e-08, No Iterations 1
smoothSolver:  Solving for Uy, Initial residual = 0.00033216822, Final residual = 2.5957681e-08, No Iterations 1
smoothSolver:  Solving for Uz, Initial residual = 0.00033359866, Final residual = 2.3655525e-08, No Iterations 1
DICPCG:  Solving for p, Initial residual = 0.0016848018, Final residual = 8.0240952e-05, No Iterations 2
DICPCG:  Solving for p, Initial residual = 0.0002493429, Final residual = 1.1885683e-05, No Iterations 6
DICPCG:  Solving for p, Initial residual = 7.2865238e-05, Final residual = 3.5634454e-06, No Iterations 15
time step continuity errors : sum local = 7.8525784e-12, global = 5.9386842e-13, cumulative = 2.1622758e-08
DICPCG:  Solving for p, Initial residual = 3.6677129e-05, Final residual = 1.7360172e-06, No Iterations 14
DICPCG:  Solving for p, Initial residual = 1.4577778e-05, Final residual = 9.9379009e-07, No Iterations 10
DICPCG:  Solving for p, Initial residual = 5.7221979e-06, Final residual = 9.2174138e-07, No Iterations 2
time step continuity errors : sum local = 2.031189e-12, global = 5.3555098e-13, cumulative = 2.1623293e-08
ExecutionTime = 154.22 s  ClockTime = 155 s

Time = 19.8

Courant Number mean: 0.00059553754 max: 0.10192679
smoothSolver:  Solving for Ux, Initial residual = 0.0001875271, Final residual = 1.6590325e-08, No Iterations 1
smoothSolver:  Solving for Uy, Initial residual = 0.00033126527, Final residual = 2.5901368e-08, No Iterations 1
smoothSolver:  Solving for Uz, Initial residual = 0.00033293815, Final residual = 2.3634084e-08, No Iterations 1
DICPCG:  Solving for p, Initial residual = 0.0017554009, Final residual = 6.6409071e-05, No Iterations 2
DICPCG:  Solving for p, Initial residual = 0.00026165616, Final residual = 1.2253512e-05, No Iterations 5
DICPCG:  Solving for p, Initial residual = 7.205242e-05, Final residual = 3.2676618e-06, No Iterations 32
time step continuity errors : sum local = 7.1916257e-12, global = 1.20961e-12, cumulative = 2.1624503e-08
DICPCG:  Solving for p, Initial residual = 4.4597402e-05, Final residual = 2.2083122e-06, No Iterations 5
DICPCG:  Solving for p, Initial residual = 1.2243141e-05, Final residual = 9.0616143e-07, No Iterations 147
DICPCG:  Solving for p, Initial residual = 1.7607081e-05, Final residual = 9.0651677e-07, No Iterations 5
time step continuity errors : sum local = 1.9950255e-12, global = -6.8543597e-14, cumulative = 2.1624434e-08
ExecutionTime = 154.89 s  ClockTime = 155 s

Time = 19.9

Courant Number mean: 0.00059555326 max: 0.10193547
smoothSolver:  Solving for Ux, Initial residual = 0.00018704538, Final residual = 1.6561221e-08, No Iterations 1
smoothSolver:  Solving for Uy, Initial residual = 0.00033035252, Final residual = 2.5786038e-08, No Iterations 1
smoothSolver:  Solving for Uz, Initial residual = 0.00033214661, Final residual = 2.3572111e-08, No Iterations 1
DICPCG:  Solving for p, Initial residual = 0.0017374034, Final residual = 8.5217619e-05, No Iterations 2
DICPCG:  Solving for p, Initial residual = 0.00027341004, Final residual = 1.1871553e-05, No Iterations 9
DICPCG:  Solving for p, Initial residual = 9.2550649e-05, Final residual = 4.5800365e-06, No Iterations 130
time step continuity errors : sum local = 1.0067721e-11, global = -9.4611303e-15, cumulative = 2.1624425e-08
DICPCG:  Solving for p, Initial residual = 7.8669159e-05, Final residual = 3.8279755e-06, No Iterations 4
DICPCG:  Solving for p, Initial residual = 1.943752e-05, Final residual = 9.3218837e-07, No Iterations 16
DICPCG:  Solving for p, Initial residual = 7.9958814e-06, Final residual = 8.1008356e-07, No Iterations 3
time step continuity errors : sum local = 1.7809113e-12, global = 1.4870789e-13, cumulative = 2.1624573e-08
ExecutionTime = 155.49 s  ClockTime = 156 s

Time = 20

Courant Number mean: 0.00059556907 max: 0.10194444
smoothSolver:  Solving for Ux, Initial residual = 0.00018663679, Final residual = 1.6529904e-08, No Iterations 1
smoothSolver:  Solving for Uy, Initial residual = 0.00032944735, Final residual = 2.5662562e-08, No Iterations 1
smoothSolver:  Solving for Uz, Initial residual = 0.00033131863, Final residual = 2.3440785e-08, No Iterations 1
DICPCG:  Solving for p, Initial residual = 0.0017504684, Final residual = 6.3203265e-05, No Iterations 3
DICPCG:  Solving for p, Initial residual = 0.00028688383, Final residual = 1.3621007e-05, No Iterations 9
DICPCG:  Solving for p, Initial residual = 9.2019212e-05, Final residual = 4.5322015e-06, No Iterations 160
time step continuity errors : sum local = 9.9526193e-12, global = 2.2505134e-15, cumulative = 2.1624576e-08
DICPCG:  Solving for p, Initial residual = 9.4120202e-05, Final residual = 4.2527082e-06, No Iterations 4
DICPCG:  Solving for p, Initial residual = 2.2874614e-05, Final residual = 1.0517274e-06, No Iterations 16
DICPCG:  Solving for p, Initial residual = 8.8895431e-06, Final residual = 9.2844788e-07, No Iterations 3
time step continuity errors : sum local = 2.0391324e-12, global = 2.1844926e-13, cumulative = 2.1624794e-08
ExecutionTime = 156.36 s  ClockTime = 157 s

End

Finalising parallel run
