/*---------------------------------------------------------------------------*\
  =========                 |
  \\      /  F ield         | OpenFOAM: The Open Source CFD Toolbox
   \\    /   O peration     | Website:  https://openfoam.org
    \\  /    A nd           | Version:  8
     \\/     M anipulation  |
\*---------------------------------------------------------------------------*/
Build  : 8-1c9b5879390b
Exec   : checkMesh
Date   : Nov 18 2021
Time   : 12:01:16
Host   : "pop-os"
PID    : 15165
I/O    : uncollated
Case   : /home/naimishbalaji/Desktop/Mini_Project/CFD-For-Ventilation-Analysis/simulations/icofoam_cases/2_branch_pair_shifted/case
nProcs : 1
sigFpe : Enabling floating point exception trapping (FOAM_SIGFPE).
fileModificationChecking : Monitoring run-time modified files using timeStampMaster (fileModificationSkew 10)
allowSystemOperations : Allowing user-supplied system call operations

// * * * * * * * * * * * * * * * * * * * * * * * * * * * * * * * * * * * * * //
Create time

Create polyMesh for time = 0

Time = 0

Mesh stats
    points:           112583
    faces:            293850
    internal faces:   273198
    cells:            94508
    faces per cell:   6
    boundary patches: 4
    point zones:      0
    face zones:       0
    cell zones:       1

Overall number of cells of each type:
    hexahedra:     94508
    prisms:        0
    wedges:        0
    pyramids:      0
    tet wedges:    0
    tetrahedra:    0
    polyhedra:     0

Checking topology...
    Boundary definition OK.
    Cell to face addressing OK.
    Point usage OK.
    Upper triangular ordering OK.
    Face vertices OK.
    Number of regions: 1 (OK).

Checking patch topology for multiply connected surfaces...
    Patch               Faces    Points   Surface topology                  
    wall                16782    17059    ok (non-closed singly connected)  
    surface             3774     4071     ok (non-closed singly connected)  
    inlet               48       62       ok (non-closed singly connected)  
    outlet              48       62       ok (non-closed singly connected)  

Checking geometry...
    Overall domain bounding box (0 0 0) (18288 12192 3962.4)
    Mesh has 3 geometric (non-empty/wedge) directions (1 1 1)
    Mesh has 3 solution (non-empty) directions (1 1 1)
    Boundary openness (-1.0122785e-16 9.6348752e-18 5.0786569e-16) OK.
    Max cell openness = 2.2030148e-16 OK.
    Max aspect ratio = 9.0070746 OK.
    Minimum face area = 2021.004. Maximum face area = 136537.84.  Face area magnitudes OK.
    Min volume = 412215.58. Max volume = 19059332.  Total volume = 6.4688624e+11.  Cell volumes OK.
    Mesh non-orthogonality Max: 75.125637 average: 26.360413
   *Number of severely non-orthogonal (> 70 degrees) faces: 726.
    Non-orthogonality check OK.
  <<Writing 726 non-orthogonal faces to set nonOrthoFaces
    Face pyramids OK.
    Max skewness = 1.138068 OK.
    Coupled point location match (average 0) OK.

Mesh OK.

End

