/*---------------------------------------------------------------------------*\
  =========                 |
  \\      /  F ield         | OpenFOAM: The Open Source CFD Toolbox
   \\    /   O peration     | Website:  https://openfoam.org
    \\  /    A nd           | Version:  8
     \\/     M anipulation  |
\*---------------------------------------------------------------------------*/
Build  : 8-1c9b5879390b
Exec   : gmshToFoam 2_branch.msh
Date   : Nov 18 2021
Time   : 12:01:14
Host   : "pop-os"
PID    : 15164
I/O    : uncollated
Case   : /home/naimishbalaji/Desktop/Mini_Project/CFD-For-Ventilation-Analysis/simulations/icofoam_cases/2_branch_pair_shifted/case
nProcs : 1
sigFpe : Enabling floating point exception trapping (FOAM_SIGFPE).
fileModificationChecking : Monitoring run-time modified files using timeStampMaster (fileModificationSkew 10)
allowSystemOperations : Allowing user-supplied system call operations

// * * * * * * * * * * * * * * * * * * * * * * * * * * * * * * * * * * * * * //
Create time

Starting to read mesh format at line 2
Read format version 2.2  ascii 0

Starting to read physical names at line 5
Physical names:5
    Surface 311	wall
    Surface 312	inlet
    Surface 313	outlet
    Surface 314	surface
    Volume 310	flow_field

Starting to read points at line 13
Vertices to be read:112583
Vertices read:112583

Starting to read cells at line 112599
Cells to be read:115160

Mapping region 311 to Foam patch 0
Mapping region 314 to Foam patch 1
Mapping region 312 to Foam patch 2
Mapping region 313 to Foam patch 3
Mapping region 310 to Foam cellZone 0
Cells:
    total:94508
    hex  :94508
    prism:0
    pyr  :0
    tet  :0

CellZones:
Zone	Size
    0	94508

Skipping tag  at line 227762
Patch 0 gets name wall
Patch 1 gets name surface
Patch 2 gets name inlet
Patch 3 gets name outlet

--> FOAM Warning : 
    From function Foam::polyMesh::polyMesh(const Foam::IOobject&, Foam::pointField&&, const cellShapeList&, const faceListList&, const wordList&, const wordList&, const Foam::word&, const Foam::word&, const wordList&, bool)
    in file meshes/polyMesh/polyMeshFromShapeMesh.C at line 595
    Found 20652 undefined faces in mesh; adding to default patch.
Finding faces of patch 0
Finding faces of patch 1
Finding faces of patch 2
Finding faces of patch 3

FaceZones:
Zone	Size

Writing zone 0 to cellZone flow_field and cellSet
End

