/*---------------------------------------------------------------------------*\
  =========                 |
  \\      /  F ield         | OpenFOAM: The Open Source CFD Toolbox
   \\    /   O peration     | Website:  https://openfoam.org
    \\  /    A nd           | Version:  8
     \\/     M anipulation  |
\*---------------------------------------------------------------------------*/
Build  : 8-1c9b5879390b
Exec   : icoFoam -parallel
Date   : Nov 13 2021
Time   : 20:41:57
Host   : "pop-os"
PID    : 18794
I/O    : uncollated
Case   : /home/naimishbalaji/Desktop/Mini_Project/CFD-For-Ventilation-Analysis/simulations/icofoam_cases/2_branch_pair_shifted/case
nProcs : 2
Slaves : 1("pop-os.18795")
Pstream initialized with:
    floatTransfer      : 0
    nProcsSimpleSum    : 0
    commsType          : nonBlocking
    polling iterations : 0
sigFpe : Enabling floating point exception trapping (FOAM_SIGFPE).
fileModificationChecking : Monitoring run-time modified files using timeStampMaster (fileModificationSkew 10)
allowSystemOperations : Allowing user-supplied system call operations

// * * * * * * * * * * * * * * * * * * * * * * * * * * * * * * * * * * * * * //
Create time

Create mesh for time = 0

Reading transportProperties

Reading field p

Reading field U

Reading/calculating face flux field phi


Starting time loop

Time = 0.1

Courant Number mean: 1.1719044e-06 max: 0.013537048
smoothSolver:  Solving for Ux, Initial residual = 0, Final residual = 0, No Iterations 0
smoothSolver:  Solving for Uy, Initial residual = 0, Final residual = 0, No Iterations 0
smoothSolver:  Solving for Uz, Initial residual = 1, Final residual = 1.0354012e-16, No Iterations 1
DICPCG:  Solving for p, Initial residual = 1, Final residual = 0.047573432, No Iterations 200
DICPCG:  Solving for p, Initial residual = 0.46044018, Final residual = 0.021296484, No Iterations 5
DICPCG:  Solving for p, Initial residual = 0.071774199, Final residual = 0.0034230943, No Iterations 7
time step continuity errors : sum local = 1.3835118e-06, global = 2.0962202e-08, cumulative = 2.0962202e-08
DICPCG:  Solving for p, Initial residual = 0.016547894, Final residual = 0.00082300383, No Iterations 16
DICPCG:  Solving for p, Initial residual = 0.0060425214, Final residual = 0.00028049802, No Iterations 49
DICPCG:  Solving for p, Initial residual = 0.0037928898, Final residual = 9.7400657e-07, No Iterations 204
time step continuity errors : sum local = 3.955402e-10, global = -6.5225299e-13, cumulative = 2.096155e-08
ExecutionTime = 1.81 s  ClockTime = 2 s

Time = 0.2

Courant Number mean: 0.00046360057 max: 0.080294287
smoothSolver:  Solving for Ux, Initial residual = 0.50012646, Final residual = 3.243298e-06, No Iterations 1
smoothSolver:  Solving for Uy, Initial residual = 0.33288269, Final residual = 2.5538672e-06, No Iterations 1
smoothSolver:  Solving for Uz, Initial residual = 0.33161982, Final residual = 1.7886256e-09, No Iterations 2
DICPCG:  Solving for p, Initial residual = 0.088526227, Final residual = 0.004230216, No Iterations 162
DICPCG:  Solving for p, Initial residual = 0.62358316, Final residual = 0.029532953, No Iterations 5
DICPCG:  Solving for p, Initial residual = 0.3111693, Final residual = 0.014529392, No Iterations 9
time step continuity errors : sum local = 1.3875764e-06, global = -5.3391407e-08, cumulative = -3.2429858e-08
DICPCG:  Solving for p, Initial residual = 0.092286854, Final residual = 0.0045957952, No Iterations 157
DICPCG:  Solving for p, Initial residual = 0.059503386, Final residual = 0.0029421551, No Iterations 11
DICPCG:  Solving for p, Initial residual = 0.017476565, Final residual = 9.5558317e-07, No Iterations 227
time step continuity errors : sum local = 6.99828e-11, global = -7.0591914e-14, cumulative = -3.2429928e-08
ExecutionTime = 3.56 s  ClockTime = 4 s

Time = 0.3

Courant Number mean: 0.00046891514 max: 0.080189351
smoothSolver:  Solving for Ux, Initial residual = 0.031145241, Final residual = 3.5999745e-07, No Iterations 1
smoothSolver:  Solving for Uy, Initial residual = 0.041974286, Final residual = 5.7808618e-07, No Iterations 1
smoothSolver:  Solving for Uz, Initial residual = 0.040337488, Final residual = 6.4747266e-07, No Iterations 1
DICPCG:  Solving for p, Initial residual = 0.42991239, Final residual = 0.018075055, No Iterations 4
DICPCG:  Solving for p, Initial residual = 0.20415056, Final residual = 0.0090446531, No Iterations 6
DICPCG:  Solving for p, Initial residual = 0.0591026, Final residual = 0.0026460797, No Iterations 11
time step continuity errors : sum local = 8.2935327e-08, global = 4.1764091e-09, cumulative = -2.8253519e-08
DICPCG:  Solving for p, Initial residual = 0.022328534, Final residual = 0.0011102858, No Iterations 44
DICPCG:  Solving for p, Initial residual = 0.014657326, Final residual = 0.00071453933, No Iterations 10
DICPCG:  Solving for p, Initial residual = 0.0040040868, Final residual = 9.5664266e-07, No Iterations 208
time step continuity errors : sum local = 2.9860431e-11, global = -9.6728473e-14, cumulative = -2.8253616e-08
ExecutionTime = 4.58 s  ClockTime = 5 s

Time = 0.4

Courant Number mean: 0.00046917844 max: 0.080335869
smoothSolver:  Solving for Ux, Initial residual = 0.010938198, Final residual = 1.6913166e-07, No Iterations 1
smoothSolver:  Solving for Uy, Initial residual = 0.01426078, Final residual = 2.2695032e-07, No Iterations 1
smoothSolver:  Solving for Uz, Initial residual = 0.014140716, Final residual = 2.9548276e-07, No Iterations 1
DICPCG:  Solving for p, Initial residual = 0.18631369, Final residual = 0.0083464657, No Iterations 3
DICPCG:  Solving for p, Initial residual = 0.049496956, Final residual = 0.0024574439, No Iterations 11
DICPCG:  Solving for p, Initial residual = 0.013771018, Final residual = 0.00063574906, No Iterations 8
time step continuity errors : sum local = 1.3907819e-08, global = -2.4837386e-09, cumulative = -3.0737354e-08
DICPCG:  Solving for p, Initial residual = 0.0045603873, Final residual = 0.00021668274, No Iterations 141
DICPCG:  Solving for p, Initial residual = 0.0040288562, Final residual = 0.00020013067, No Iterations 6
DICPCG:  Solving for p, Initial residual = 0.00099981882, Final residual = 8.9596878e-07, No Iterations 186
time step continuity errors : sum local = 1.9535543e-11, global = -8.5178124e-15, cumulative = -3.0737363e-08
ExecutionTime = 5.73 s  ClockTime = 6 s

Time = 0.5

Courant Number mean: 0.00046921776 max: 0.080638182
smoothSolver:  Solving for Ux, Initial residual = 0.0073799524, Final residual = 1.2295482e-07, No Iterations 1
smoothSolver:  Solving for Uy, Initial residual = 0.0093591835, Final residual = 1.5950407e-07, No Iterations 1
smoothSolver:  Solving for Uz, Initial residual = 0.009384249, Final residual = 2.1415067e-07, No Iterations 1
DICPCG:  Solving for p, Initial residual = 0.10913253, Final residual = 0.0048939652, No Iterations 3
DICPCG:  Solving for p, Initial residual = 0.024209648, Final residual = 0.0010834798, No Iterations 13
DICPCG:  Solving for p, Initial residual = 0.0060624668, Final residual = 0.00028892902, No Iterations 11
time step continuity errors : sum local = 5.0997054e-09, global = -1.4458257e-09, cumulative = -3.2183189e-08
DICPCG:  Solving for p, Initial residual = 0.0020839349, Final residual = 9.5307083e-05, No Iterations 137
DICPCG:  Solving for p, Initial residual = 0.00300393, Final residual = 0.00013408903, No Iterations 6
DICPCG:  Solving for p, Initial residual = 0.00069249815, Final residual = 9.776515e-07, No Iterations 198
time step continuity errors : sum local = 1.7265851e-11, global = 7.7536105e-15, cumulative = -3.2183181e-08
ExecutionTime = 7.35 s  ClockTime = 8 s

Time = 0.6

Courant Number mean: 0.00046924978 max: 0.080954863
smoothSolver:  Solving for Ux, Initial residual = 0.0058199074, Final residual = 1.0100234e-07, No Iterations 1
smoothSolver:  Solving for Uy, Initial residual = 0.007353403, Final residual = 1.3187251e-07, No Iterations 1
smoothSolver:  Solving for Uz, Initial residual = 0.007387542, Final residual = 1.7224688e-07, No Iterations 1
DICPCG:  Solving for p, Initial residual = 0.082862321, Final residual = 0.0040426409, No Iterations 2
DICPCG:  Solving for p, Initial residual = 0.016999568, Final residual = 0.00066245718, No Iterations 14
DICPCG:  Solving for p, Initial residual = 0.0041077701, Final residual = 0.00020019779, No Iterations 11
time step continuity errors : sum local = 3.0110578e-09, global = -8.8556684e-10, cumulative = -3.3068748e-08
DICPCG:  Solving for p, Initial residual = 0.0014011215, Final residual = 6.81328e-05, No Iterations 144
DICPCG:  Solving for p, Initial residual = 0.0021292442, Final residual = 9.2491775e-05, No Iterations 6
DICPCG:  Solving for p, Initial residual = 0.00048351872, Final residual = 9.6131182e-07, No Iterations 190
time step continuity errors : sum local = 1.4512854e-11, global = -2.0708696e-14, cumulative = -3.3068768e-08
ExecutionTime = 8.61 s  ClockTime = 9 s

Time = 0.7

Courant Number mean: 0.00046927812 max: 0.081273082
smoothSolver:  Solving for Ux, Initial residual = 0.0048421705, Final residual = 8.6314525e-08, No Iterations 1
smoothSolver:  Solving for Uy, Initial residual = 0.0061093866, Final residual = 1.1442047e-07, No Iterations 1
smoothSolver:  Solving for Uz, Initial residual = 0.0061439804, Final residual = 1.4601611e-07, No Iterations 1
DICPCG:  Solving for p, Initial residual = 0.067972011, Final residual = 0.0030504911, No Iterations 2
DICPCG:  Solving for p, Initial residual = 0.013166968, Final residual = 0.00050582403, No Iterations 14
DICPCG:  Solving for p, Initial residual = 0.0031221409, Final residual = 0.00014423927, No Iterations 11
time step continuity errors : sum local = 1.9085211e-09, global = -5.5511058e-10, cumulative = -3.3623879e-08
DICPCG:  Solving for p, Initial residual = 0.00104793, Final residual = 5.1551099e-05, No Iterations 142
DICPCG:  Solving for p, Initial residual = 0.0015668594, Final residual = 7.0282581e-05, No Iterations 6
DICPCG:  Solving for p, Initial residual = 0.00035613433, Final residual = 8.8090418e-07, No Iterations 189
time step continuity errors : sum local = 1.1690393e-11, global = -3.4426933e-15, cumulative = -3.3623882e-08
ExecutionTime = 9.95 s  ClockTime = 11 s

Time = 0.8

Courant Number mean: 0.00046929975 max: 0.081586705
smoothSolver:  Solving for Ux, Initial residual = 0.0041614582, Final residual = 7.6554972e-08, No Iterations 1
smoothSolver:  Solving for Uy, Initial residual = 0.0052459011, Final residual = 1.0242135e-07, No Iterations 1
smoothSolver:  Solving for Uz, Initial residual = 0.0052717468, Final residual = 1.2729596e-07, No Iterations 1
DICPCG:  Solving for p, Initial residual = 0.05803386, Final residual = 0.0024085969, No Iterations 2
DICPCG:  Solving for p, Initial residual = 0.010775391, Final residual = 0.00050751926, No Iterations 13
DICPCG:  Solving for p, Initial residual = 0.0025091318, Final residual = 0.00012376238, No Iterations 9
time step continuity errors : sum local = 1.4673651e-09, global = -3.4543728e-10, cumulative = -3.396932e-08
DICPCG:  Solving for p, Initial residual = 0.00079757179, Final residual = 3.618634e-05, No Iterations 145
DICPCG:  Solving for p, Initial residual = 0.0011713554, Final residual = 5.3028901e-05, No Iterations 6
DICPCG:  Solving for p, Initial residual = 0.00026490553, Final residual = 8.9324765e-07, No Iterations 186
time step continuity errors : sum local = 1.0612292e-11, global = 2.7893033e-15, cumulative = -3.3969317e-08
ExecutionTime = 11.17 s  ClockTime = 12 s

Time = 0.9

Courant Number mean: 0.000469317 max: 0.081895209
smoothSolver:  Solving for Ux, Initial residual = 0.0036570888, Final residual = 6.954287e-08, No Iterations 1
smoothSolver:  Solving for Uy, Initial residual = 0.0046069479, Final residual = 9.3392792e-08, No Iterations 1
smoothSolver:  Solving for Uz, Initial residual = 0.0046262159, Final residual = 1.1395279e-07, No Iterations 1
DICPCG:  Solving for p, Initial residual = 0.050840114, Final residual = 0.0019873995, No Iterations 2
DICPCG:  Solving for p, Initial residual = 0.0091107542, Final residual = 0.00041627538, No Iterations 13
DICPCG:  Solving for p, Initial residual = 0.0020776148, Final residual = 9.8045005e-05, No Iterations 9
time step continuity errors : sum local = 1.055226e-09, global = -2.2241253e-10, cumulative = -3.4191729e-08
DICPCG:  Solving for p, Initial residual = 0.00064628363, Final residual = 3.0550535e-05, No Iterations 143
DICPCG:  Solving for p, Initial residual = 0.0008649013, Final residual = 3.9816984e-05, No Iterations 6
DICPCG:  Solving for p, Initial residual = 0.00019589173, Final residual = 8.8217784e-07, No Iterations 184
time step continuity errors : sum local = 9.5075896e-12, global = -4.9691479e-15, cumulative = -3.4191734e-08
ExecutionTime = 12.45 s  ClockTime = 13 s

Time = 1

Courant Number mean: 0.00046933073 max: 0.082193357
smoothSolver:  Solving for Ux, Initial residual = 0.0032658198, Final residual = 6.4014149e-08, No Iterations 1
smoothSolver:  Solving for Uy, Initial residual = 0.0041110462, Final residual = 8.6267094e-08, No Iterations 1
smoothSolver:  Solving for Uz, Initial residual = 0.0041276479, Final residual = 1.0356548e-07, No Iterations 1
DICPCG:  Solving for p, Initial residual = 0.04522931, Final residual = 0.0016878792, No Iterations 2
DICPCG:  Solving for p, Initial residual = 0.0078495032, Final residual = 0.00036015266, No Iterations 10
DICPCG:  Solving for p, Initial residual = 0.0017567069, Final residual = 7.3740029e-05, No Iterations 15
time step continuity errors : sum local = 7.2775541e-10, global = -1.5826517e-10, cumulative = -3.435e-08
DICPCG:  Solving for p, Initial residual = 0.00058592576, Final residual = 2.8686327e-05, No Iterations 138
DICPCG:  Solving for p, Initial residual = 0.00064531351, Final residual = 3.1949249e-05, No Iterations 6
DICPCG:  Solving for p, Initial residual = 0.00014985833, Final residual = 9.99496e-07, No Iterations 179
time step continuity errors : sum local = 9.873506e-12, global = 1.1511465e-14, cumulative = -3.4349988e-08
ExecutionTime = 14 s  ClockTime = 15 s

Time = 1.1

Courant Number mean: 0.00046934171 max: 0.082477992
smoothSolver:  Solving for Ux, Initial residual = 0.0029535242, Final residual = 5.9827035e-08, No Iterations 1
smoothSolver:  Solving for Uy, Initial residual = 0.0037141207, Final residual = 8.0744958e-08, No Iterations 1
smoothSolver:  Solving for Uz, Initial residual = 0.0037286695, Final residual = 9.5600526e-08, No Iterations 1
DICPCG:  Solving for p, Initial residual = 0.040886348, Final residual = 0.0014796422, No Iterations 2
DICPCG:  Solving for p, Initial residual = 0.0069288035, Final residual = 0.00033309087, No Iterations 8
DICPCG:  Solving for p, Initial residual = 0.001499198, Final residual = 6.8537443e-05, No Iterations 14
time step continuity errors : sum local = 6.2529339e-10, global = -1.0108994e-10, cumulative = -3.4451078e-08
DICPCG:  Solving for p, Initial residual = 0.00049456918, Final residual = 2.4613989e-05, No Iterations 138
DICPCG:  Solving for p, Initial residual = 0.00048068409, Final residual = 2.333978e-05, No Iterations 6
DICPCG:  Solving for p, Initial residual = 0.00011177488, Final residual = 9.9130245e-07, No Iterations 50
time step continuity errors : sum local = 9.0491323e-12, global = 1.6655726e-12, cumulative = -3.4449412e-08
ExecutionTime = 14.87 s  ClockTime = 16 s

Time = 1.2

Courant Number mean: 0.00046935064 max: 0.082749016
smoothSolver:  Solving for Ux, Initial residual = 0.0026968286, Final residual = 5.6439324e-08, No Iterations 1
smoothSolver:  Solving for Uy, Initial residual = 0.0033877487, Final residual = 7.5730361e-08, No Iterations 1
smoothSolver:  Solving for Uz, Initial residual = 0.0034007822, Final residual = 8.8835164e-08, No Iterations 1
DICPCG:  Solving for p, Initial residual = 0.037230209, Final residual = 0.0013173752, No Iterations 2
DICPCG:  Solving for p, Initial residual = 0.0061601772, Final residual = 0.00025809211, No Iterations 8
DICPCG:  Solving for p, Initial residual = 0.0013001558, Final residual = 5.4546669e-05, No Iterations 14
time step continuity errors : sum local = 4.6319065e-10, global = -6.4091583e-11, cumulative = -3.4513504e-08
DICPCG:  Solving for p, Initial residual = 0.00041672633, Final residual = 1.9777084e-05, No Iterations 140
DICPCG:  Solving for p, Initial residual = 0.00035268467, Final residual = 1.7428583e-05, No Iterations 6
DICPCG:  Solving for p, Initial residual = 8.3020488e-05, Final residual = 9.903197e-07, No Iterations 47
time step continuity errors : sum local = 8.4117841e-12, global = 9.8316872e-13, cumulative = -3.4512521e-08
ExecutionTime = 15.93 s  ClockTime = 17 s

Time = 1.3

Courant Number mean: 0.00046935738 max: 0.083006918
smoothSolver:  Solving for Ux, Initial residual = 0.0024828015, Final residual = 5.3642614e-08, No Iterations 1
smoothSolver:  Solving for Uy, Initial residual = 0.0031157207, Final residual = 7.1543694e-08, No Iterations 1
smoothSolver:  Solving for Uz, Initial residual = 0.0031281859, Final residual = 8.2485555e-08, No Iterations 1
DICPCG:  Solving for p, Initial residual = 0.03432094, Final residual = 0.0011706223, No Iterations 2
DICPCG:  Solving for p, Initial residual = 0.0055623231, Final residual = 0.00026344542, No Iterations 6
DICPCG:  Solving for p, Initial residual = 0.0011790041, Final residual = 4.6609363e-05, No Iterations 15
time step continuity errors : sum local = 3.7035082e-10, global = -4.6374505e-11, cumulative = -3.4558895e-08
DICPCG:  Solving for p, Initial residual = 0.00038030058, Final residual = 1.8659281e-05, No Iterations 142
DICPCG:  Solving for p, Initial residual = 0.00027143564, Final residual = 1.293776e-05, No Iterations 6
DICPCG:  Solving for p, Initial residual = 6.4965174e-05, Final residual = 9.9991531e-07, No Iterations 55
time step continuity errors : sum local = 7.945892e-12, global = 1.6466992e-13, cumulative = -3.4558731e-08
ExecutionTime = 17.04 s  ClockTime = 18 s

Time = 1.4

Courant Number mean: 0.00046936277 max: 0.083251914
smoothSolver:  Solving for Ux, Initial residual = 0.0023013444, Final residual = 5.1345462e-08, No Iterations 1
smoothSolver:  Solving for Uy, Initial residual = 0.0028848013, Final residual = 6.8000596e-08, No Iterations 1
smoothSolver:  Solving for Uz, Initial residual = 0.0028965354, Final residual = 7.680516e-08, No Iterations 1
DICPCG:  Solving for p, Initial residual = 0.031800061, Final residual = 0.001066286, No Iterations 2
DICPCG:  Solving for p, Initial residual = 0.0050714944, Final residual = 0.00021716226, No Iterations 6
DICPCG:  Solving for p, Initial residual = 0.0010613319, Final residual = 4.8944041e-05, No Iterations 10
time step continuity errors : sum local = 3.6565205e-10, global = -3.1953151e-11, cumulative = -3.4590684e-08
DICPCG:  Solving for p, Initial residual = 0.00032349126, Final residual = 1.5589416e-05, No Iterations 16
DICPCG:  Solving for p, Initial residual = 0.00012944631, Final residual = 6.2084817e-06, No Iterations 149
DICPCG:  Solving for p, Initial residual = 0.00015091911, Final residual = 9.764491e-07, No Iterations 47
time step continuity errors : sum local = 7.2940542e-12, global = 1.8105823e-12, cumulative = -3.4588873e-08
ExecutionTime = 18.06 s  ClockTime = 19 s

Time = 1.5

Courant Number mean: 0.0004693671 max: 0.083485264
smoothSolver:  Solving for Ux, Initial residual = 0.0021455421, Final residual = 4.9231786e-08, No Iterations 1
smoothSolver:  Solving for Uy, Initial residual = 0.0026872857, Final residual = 6.4824597e-08, No Iterations 1
smoothSolver:  Solving for Uz, Initial residual = 0.0026977074, Final residual = 7.2418294e-08, No Iterations 1
DICPCG:  Solving for p, Initial residual = 0.029620639, Final residual = 0.00095564715, No Iterations 2
DICPCG:  Solving for p, Initial residual = 0.0046305567, Final residual = 0.00019140256, No Iterations 6
DICPCG:  Solving for p, Initial residual = 0.0009569041, Final residual = 4.6086629e-05, No Iterations 9
time step continuity errors : sum local = 3.2507133e-10, global = -4.6307598e-12, cumulative = -3.4593504e-08
DICPCG:  Solving for p, Initial residual = 0.00028719679, Final residual = 1.3636041e-05, No Iterations 16
DICPCG:  Solving for p, Initial residual = 0.00011593416, Final residual = 5.4339959e-06, No Iterations 47
DICPCG:  Solving for p, Initial residual = 6.8518816e-05, Final residual = 9.8776929e-07, No Iterations 163
time step continuity errors : sum local = 6.9649596e-12, global = -1.017978e-14, cumulative = -3.4593514e-08
ExecutionTime = 19.33 s  ClockTime = 21 s

Time = 1.6

Courant Number mean: 0.00046937016 max: 0.083706326
smoothSolver:  Solving for Ux, Initial residual = 0.002010389, Final residual = 4.7390896e-08, No Iterations 1
smoothSolver:  Solving for Uy, Initial residual = 0.0025160176, Final residual = 6.198757e-08, No Iterations 1
smoothSolver:  Solving for Uz, Initial residual = 0.0025256101, Final residual = 6.8686677e-08, No Iterations 1
DICPCG:  Solving for p, Initial residual = 0.027736307, Final residual = 0.00088049716, No Iterations 2
DICPCG:  Solving for p, Initial residual = 0.004263741, Final residual = 0.00018280764, No Iterations 6
DICPCG:  Solving for p, Initial residual = 0.0008820213, Final residual = 4.2586348e-05, No Iterations 10
time step continuity errors : sum local = 2.8455773e-10, global = -3.9001744e-12, cumulative = -3.4597414e-08
DICPCG:  Solving for p, Initial residual = 0.0002671003, Final residual = 1.3229838e-05, No Iterations 16
DICPCG:  Solving for p, Initial residual = 0.00010828862, Final residual = 5.2871425e-06, No Iterations 30
DICPCG:  Solving for p, Initial residual = 5.8341027e-05, Final residual = 9.336958e-07, No Iterations 62
time step continuity errors : sum local = 6.2369061e-12, global = 1.4824587e-13, cumulative = -3.4597266e-08
ExecutionTime = 19.92 s  ClockTime = 21 s

Time = 1.7

Courant Number mean: 0.00046937251 max: 0.083916247
smoothSolver:  Solving for Ux, Initial residual = 0.0018916432, Final residual = 4.5851211e-08, No Iterations 1
smoothSolver:  Solving for Uy, Initial residual = 0.0023652151, Final residual = 5.9398473e-08, No Iterations 1
smoothSolver:  Solving for Uz, Initial residual = 0.0023752695, Final residual = 6.5579192e-08, No Iterations 1
DICPCG:  Solving for p, Initial residual = 0.026126108, Final residual = 0.00081767003, No Iterations 2
DICPCG:  Solving for p, Initial residual = 0.0039682455, Final residual = 0.00017170722, No Iterations 6
DICPCG:  Solving for p, Initial residual = 0.00081822177, Final residual = 4.0624978e-05, No Iterations 10
time step continuity errors : sum local = 2.5795877e-10, global = 7.062982e-12, cumulative = -3.4590203e-08
DICPCG:  Solving for p, Initial residual = 0.00024853016, Final residual = 1.1759043e-05, No Iterations 17
DICPCG:  Solving for p, Initial residual = 0.0001008762, Final residual = 4.8550131e-06, No Iterations 150
DICPCG:  Solving for p, Initial residual = 6.0576545e-05, Final residual = 9.5953407e-07, No Iterations 36
time step continuity errors : sum local = 6.0903446e-12, global = -4.6252465e-13, cumulative = -3.4590666e-08
ExecutionTime = 20.8 s  ClockTime = 22 s

Time = 1.8

Courant Number mean: 0.00046937412 max: 0.084114287
smoothSolver:  Solving for Ux, Initial residual = 0.0017865785, Final residual = 4.4450766e-08, No Iterations 1
smoothSolver:  Solving for Uy, Initial residual = 0.0022320147, Final residual = 5.7091759e-08, No Iterations 1
smoothSolver:  Solving for Uz, Initial residual = 0.0022421518, Final residual = 6.2812845e-08, No Iterations 1
DICPCG:  Solving for p, Initial residual = 0.024705143, Final residual = 0.00075170045, No Iterations 2
DICPCG:  Solving for p, Initial residual = 0.0036973517, Final residual = 0.00015951844, No Iterations 6
DICPCG:  Solving for p, Initial residual = 0.00076005137, Final residual = 3.7413846e-05, No Iterations 11
time step continuity errors : sum local = 2.2636853e-10, global = 1.0060602e-11, cumulative = -3.4580605e-08
DICPCG:  Solving for p, Initial residual = 0.00023426203, Final residual = 1.0811496e-05, No Iterations 31
DICPCG:  Solving for p, Initial residual = 0.00010942373, Final residual = 5.2788423e-06, No Iterations 139
DICPCG:  Solving for p, Initial residual = 8.1648938e-05, Final residual = 9.6189616e-07, No Iterations 37
time step continuity errors : sum local = 5.817256e-12, global = -7.3342979e-13, cumulative = -3.4581338e-08
ExecutionTime = 21.68 s  ClockTime = 23 s

Time = 1.9

Courant Number mean: 0.00046937512 max: 0.084299801
smoothSolver:  Solving for Ux, Initial residual = 0.0016928006, Final residual = 4.3205016e-08, No Iterations 1
smoothSolver:  Solving for Uy, Initial residual = 0.002112924, Final residual = 5.498042e-08, No Iterations 1
smoothSolver:  Solving for Uz, Initial residual = 0.0021235868, Final residual = 5.9980902e-08, No Iterations 1
DICPCG:  Solving for p, Initial residual = 0.023408267, Final residual = 0.00069637909, No Iterations 2
DICPCG:  Solving for p, Initial residual = 0.0034531007, Final residual = 0.00014975616, No Iterations 6
DICPCG:  Solving for p, Initial residual = 0.00070739848, Final residual = 3.4370562e-05, No Iterations 14
time step continuity errors : sum local = 1.986653e-10, global = 1.337843e-11, cumulative = -3.456796e-08
DICPCG:  Solving for p, Initial residual = 0.00022055274, Final residual = 1.0833676e-05, No Iterations 23
DICPCG:  Solving for p, Initial residual = 9.2766727e-05, Final residual = 4.5772098e-06, No Iterations 142
DICPCG:  Solving for p, Initial residual = 8.9609667e-05, Final residual = 9.2364418e-07, No Iterations 39
time step continuity errors : sum local = 5.3363297e-12, global = -8.9925182e-13, cumulative = -3.4568859e-08
ExecutionTime = 22.48 s  ClockTime = 24 s

Time = 2

Courant Number mean: 0.00046937584 max: 0.084473115
smoothSolver:  Solving for Ux, Initial residual = 0.0016087405, Final residual = 4.2043123e-08, No Iterations 1
smoothSolver:  Solving for Uy, Initial residual = 0.0020064326, Final residual = 5.3117043e-08, No Iterations 1
smoothSolver:  Solving for Uz, Initial residual = 0.0020171833, Final residual = 5.7597882e-08, No Iterations 1
DICPCG:  Solving for p, Initial residual = 0.022302498, Final residual = 0.00065609587, No Iterations 2
DICPCG:  Solving for p, Initial residual = 0.0032536712, Final residual = 0.00014701609, No Iterations 6
DICPCG:  Solving for p, Initial residual = 0.00066627139, Final residual = 2.7073838e-05, No Iterations 15
time step continuity errors : sum local = 1.4983197e-10, global = 1.8391713e-11, cumulative = -3.4550468e-08
DICPCG:  Solving for p, Initial residual = 0.0002096013, Final residual = 1.0233223e-05, No Iterations 147
DICPCG:  Solving for p, Initial residual = 0.00013451171, Final residual = 5.7259768e-06, No Iterations 9
DICPCG:  Solving for p, Initial residual = 3.8128169e-05, Final residual = 9.6855765e-07, No Iterations 56
time step continuity errors : sum local = 5.35734e-12, global = -2.1751217e-13, cumulative = -3.4550685e-08
ExecutionTime = 23.53 s  ClockTime = 25 s

Time = 2.1

Courant Number mean: 0.00046937606 max: 0.084634689
smoothSolver:  Solving for Ux, Initial residual = 0.0015324785, Final residual = 4.0842137e-08, No Iterations 1
smoothSolver:  Solving for Uy, Initial residual = 0.0019099699, Final residual = 5.1297599e-08, No Iterations 1
smoothSolver:  Solving for Uz, Initial residual = 0.0019209296, Final residual = 5.539273e-08, No Iterations 1
DICPCG:  Solving for p, Initial residual = 0.021308954, Final residual = 0.0006088451, No Iterations 2
DICPCG:  Solving for p, Initial residual = 0.0030801489, Final residual = 0.00015312408, No Iterations 6
DICPCG:  Solving for p, Initial residual = 0.00063613573, Final residual = 2.8494776e-05, No Iterations 15
time step continuity errors : sum local = 1.5129096e-10, global = 1.8429895e-11, cumulative = -3.4532255e-08
DICPCG:  Solving for p, Initial residual = 0.00020740623, Final residual = 9.6877364e-06, No Iterations 126
DICPCG:  Solving for p, Initial residual = 0.0001701587, Final residual = 7.2367907e-06, No Iterations 9
DICPCG:  Solving for p, Initial residual = 4.4622616e-05, Final residual = 9.5242202e-07, No Iterations 68
time step continuity errors : sum local = 5.0540135e-12, global = -1.2131603e-13, cumulative = -3.4532376e-08
ExecutionTime = 24.37 s  ClockTime = 26 s

Time = 2.2

Courant Number mean: 0.00046937582 max: 0.084784621
smoothSolver:  Solving for Ux, Initial residual = 0.0014629136, Final residual = 3.9824357e-08, No Iterations 1
smoothSolver:  Solving for Uy, Initial residual = 0.0018225083, Final residual = 4.9510307e-08, No Iterations 1
smoothSolver:  Solving for Uz, Initial residual = 0.0018336069, Final residual = 5.3430728e-08, No Iterations 1
DICPCG:  Solving for p, Initial residual = 0.020393654, Final residual = 0.00058387211, No Iterations 2
DICPCG:  Solving for p, Initial residual = 0.0029064114, Final residual = 0.00011570026, No Iterations 8
DICPCG:  Solving for p, Initial residual = 0.00059254656, Final residual = 2.790946e-05, No Iterations 14
time step continuity errors : sum local = 1.4242543e-10, global = 2.390413e-11, cumulative = -3.4508472e-08
DICPCG:  Solving for p, Initial residual = 0.00019607935, Final residual = 9.8012912e-06, No Iterations 143
DICPCG:  Solving for p, Initial residual = 0.00016075867, Final residual = 6.7810346e-06, No Iterations 6
DICPCG:  Solving for p, Initial residual = 4.0953887e-05, Final residual = 9.2683383e-07, No Iterations 59
time step continuity errors : sum local = 4.7269824e-12, global = -2.3643205e-13, cumulative = -3.4508709e-08
ExecutionTime = 25.24 s  ClockTime = 27 s

Time = 2.3

Courant Number mean: 0.00046937583 max: 0.084925856
smoothSolver:  Solving for Ux, Initial residual = 0.0013993668, Final residual = 3.8856772e-08, No Iterations 1
smoothSolver:  Solving for Uy, Initial residual = 0.0017424189, Final residual = 4.7767502e-08, No Iterations 1
smoothSolver:  Solving for Uz, Initial residual = 0.0017541906, Final residual = 5.1366718e-08, No Iterations 1
DICPCG:  Solving for p, Initial residual = 0.019578179, Final residual = 0.00057305193, No Iterations 2
DICPCG:  Solving for p, Initial residual = 0.002766723, Final residual = 0.00012199799, No Iterations 8
DICPCG:  Solving for p, Initial residual = 0.00056838195, Final residual = 2.435971e-05, No Iterations 15
time step continuity errors : sum local = 1.1965758e-10, global = 2.884077e-11, cumulative = -3.4479868e-08
DICPCG:  Solving for p, Initial residual = 0.00019163489, Final residual = 9.0079757e-06, No Iterations 149
DICPCG:  Solving for p, Initial residual = 0.0001912346, Final residual = 9.2639441e-06, No Iterations 5
DICPCG:  Solving for p, Initial residual = 4.8044601e-05, Final residual = 9.8689158e-07, No Iterations 45
time step continuity errors : sum local = 4.844426e-12, global = -4.1719309e-13, cumulative = -3.4480285e-08
ExecutionTime = 26.09 s  ClockTime = 28 s

Time = 2.4

Courant Number mean: 0.00046937584 max: 0.08505784
smoothSolver:  Solving for Ux, Initial residual = 0.0013410896, Final residual = 3.7769425e-08, No Iterations 1
smoothSolver:  Solving for Uy, Initial residual = 0.001668757, Final residual = 4.6181906e-08, No Iterations 1
smoothSolver:  Solving for Uz, Initial residual = 0.0016811204, Final residual = 4.9407967e-08, No Iterations 1
DICPCG:  Solving for p, Initial residual = 0.018862335, Final residual = 0.00057830083, No Iterations 2
DICPCG:  Solving for p, Initial residual = 0.002665866, Final residual = 0.00011886371, No Iterations 9
DICPCG:  Solving for p, Initial residual = 0.00055846616, Final residual = 2.5006268e-05, No Iterations 15
time step continuity errors : sum local = 1.1839876e-10, global = 3.037777e-11, cumulative = -3.4449907e-08
DICPCG:  Solving for p, Initial residual = 0.00020071261, Final residual = 9.9406797e-06, No Iterations 140
DICPCG:  Solving for p, Initial residual = 0.00020195258, Final residual = 9.8181342e-06, No Iterations 5
DICPCG:  Solving for p, Initial residual = 5.0832842e-05, Final residual = 9.1958309e-07, No Iterations 51
time step continuity errors : sum local = 4.3509162e-12, global = -3.4278921e-13, cumulative = -3.445025e-08
ExecutionTime = 26.99 s  ClockTime = 28 s

Time = 2.5

Courant Number mean: 0.0004693755 max: 0.08517749
smoothSolver:  Solving for Ux, Initial residual = 0.0012877761, Final residual = 3.6417234e-08, No Iterations 1
smoothSolver:  Solving for Uy, Initial residual = 0.0016013422, Final residual = 4.4447758e-08, No Iterations 1
smoothSolver:  Solving for Uz, Initial residual = 0.0016138695, Final residual = 4.7262357e-08, No Iterations 1
DICPCG:  Solving for p, Initial residual = 0.018033614, Final residual = 0.00053552564, No Iterations 2
DICPCG:  Solving for p, Initial residual = 0.0025052964, Final residual = 0.00011960337, No Iterations 9
DICPCG:  Solving for p, Initial residual = 0.00053420873, Final residual = 2.389122e-05, No Iterations 15
time step continuity errors : sum local = 1.0922174e-10, global = 2.8404775e-11, cumulative = -3.4421845e-08
DICPCG:  Solving for p, Initial residual = 0.0001935075, Final residual = 9.344682e-06, No Iterations 136
DICPCG:  Solving for p, Initial residual = 0.00020166346, Final residual = 9.3867661e-06, No Iterations 5
DICPCG:  Solving for p, Initial residual = 5.018381e-05, Final residual = 9.809593e-07, No Iterations 53
time step continuity errors : sum local = 4.4815159e-12, global = -2.7664488e-13, cumulative = -3.4422122e-08
ExecutionTime = 28.04 s  ClockTime = 30 s

Time = 2.6

Courant Number mean: 0.00046937499 max: 0.08529138
smoothSolver:  Solving for Ux, Initial residual = 0.0012385786, Final residual = 3.5437418e-08, No Iterations 1
smoothSolver:  Solving for Uy, Initial residual = 0.0015396084, Final residual = 4.3195568e-08, No Iterations 1
smoothSolver:  Solving for Uz, Initial residual = 0.0015520404, Final residual = 4.5842806e-08, No Iterations 1
DICPCG:  Solving for p, Initial residual = 0.017327164, Final residual = 0.00049726458, No Iterations 2
DICPCG:  Solving for p, Initial residual = 0.00237808, Final residual = 0.00010937305, No Iterations 10
DICPCG:  Solving for p, Initial residual = 0.00050729181, Final residual = 2.4995421e-05, No Iterations 15
time step continuity errors : sum local = 1.1048001e-10, global = 2.9888088e-11, cumulative = -3.4392234e-08
DICPCG:  Solving for p, Initial residual = 0.00018165907, Final residual = 8.9509971e-06, No Iterations 135
DICPCG:  Solving for p, Initial residual = 0.0002067386, Final residual = 8.6907626e-06, No Iterations 5
DICPCG:  Solving for p, Initial residual = 4.9887609e-05, Final residual = 9.5700656e-07, No Iterations 52
time step continuity errors : sum local = 4.2270527e-12, global = -2.8494231e-13, cumulative = -3.4392519e-08
ExecutionTime = 28.89 s  ClockTime = 30 s

Time = 2.7

Courant Number mean: 0.0004693747 max: 0.085397813
smoothSolver:  Solving for Ux, Initial residual = 0.0011931118, Final residual = 3.4599758e-08, No Iterations 1
smoothSolver:  Solving for Uy, Initial residual = 0.0014826524, Final residual = 4.2130402e-08, No Iterations 1
smoothSolver:  Solving for Uz, Initial residual = 0.0014950112, Final residual = 4.4510524e-08, No Iterations 1
DICPCG:  Solving for p, Initial residual = 0.016697566, Final residual = 0.00047385668, No Iterations 2
DICPCG:  Solving for p, Initial residual = 0.0022692341, Final residual = 0.00011073858, No Iterations 10
DICPCG:  Solving for p, Initial residual = 0.0004901614, Final residual = 2.1927426e-05, No Iterations 16
time step continuity errors : sum local = 9.3821651e-11, global = 2.8614675e-11, cumulative = -3.4363904e-08
DICPCG:  Solving for p, Initial residual = 0.00017814909, Final residual = 8.7784468e-06, No Iterations 132
DICPCG:  Solving for p, Initial residual = 0.00020844209, Final residual = 8.9101573e-06, No Iterations 5
DICPCG:  Solving for p, Initial residual = 5.0234767e-05, Final residual = 9.7706851e-07, No Iterations 52
time step continuity errors : sum local = 4.1777526e-12, global = -2.7518466e-13, cumulative = -3.4364179e-08
ExecutionTime = 29.7 s  ClockTime = 31 s

Time = 2.8

Courant Number mean: 0.00046937418 max: 0.085495967
smoothSolver:  Solving for Ux, Initial residual = 0.0011510876, Final residual = 3.3849746e-08, No Iterations 1
smoothSolver:  Solving for Uy, Initial residual = 0.0014299183, Final residual = 4.1134912e-08, No Iterations 1
smoothSolver:  Solving for Uz, Initial residual = 0.0014421718, Final residual = 4.3213616e-08, No Iterations 1
DICPCG:  Solving for p, Initial residual = 0.016072975, Final residual = 0.00045482083, No Iterations 2
DICPCG:  Solving for p, Initial residual = 0.0021745984, Final residual = 0.00010476564, No Iterations 12
DICPCG:  Solving for p, Initial residual = 0.00047515775, Final residual = 2.2726759e-05, No Iterations 15
time step continuity errors : sum local = 9.4249395e-11, global = 2.5854941e-11, cumulative = -3.4338325e-08
DICPCG:  Solving for p, Initial residual = 0.00016562788, Final residual = 8.1883347e-06, No Iterations 129
DICPCG:  Solving for p, Initial residual = 0.0001951139, Final residual = 8.5214977e-06, No Iterations 5
DICPCG:  Solving for p, Initial residual = 4.7101394e-05, Final residual = 9.894663e-07, No Iterations 61
time step continuity errors : sum local = 4.1006985e-12, global = -3.0183695e-13, cumulative = -3.4338626e-08
ExecutionTime = 30.56 s  ClockTime = 32 s

Time = 2.9

Courant Number mean: 0.00046937359 max: 0.085587455
smoothSolver:  Solving for Ux, Initial residual = 0.0011120268, Final residual = 3.3104983e-08, No Iterations 1
smoothSolver:  Solving for Uy, Initial residual = 0.0013812692, Final residual = 4.0242248e-08, No Iterations 1
smoothSolver:  Solving for Uz, Initial residual = 0.0013931979, Final residual = 4.1964138e-08, No Iterations 1
DICPCG:  Solving for p, Initial residual = 0.015550991, Final residual = 0.00043525617, No Iterations 2
DICPCG:  Solving for p, Initial residual = 0.0020890385, Final residual = 0.00010436264, No Iterations 10
DICPCG:  Solving for p, Initial residual = 0.00044859055, Final residual = 1.9368053e-05, No Iterations 16
time step continuity errors : sum local = 7.7927651e-11, global = 2.4817963e-11, cumulative = -3.4313808e-08
DICPCG:  Solving for p, Initial residual = 0.00016227126, Final residual = 7.3856582e-06, No Iterations 130
DICPCG:  Solving for p, Initial residual = 0.00020050297, Final residual = 8.2911417e-06, No Iterations 5
DICPCG:  Solving for p, Initial residual = 4.815471e-05, Final residual = 9.3832578e-07, No Iterations 48
time step continuity errors : sum local = 3.772969e-12, global = -2.9030201e-13, cumulative = -3.4314099e-08
ExecutionTime = 31.39 s  ClockTime = 33 s

Time = 3

Courant Number mean: 0.00046937296 max: 0.085673468
smoothSolver:  Solving for Ux, Initial residual = 0.0010754399, Final residual = 3.2390578e-08, No Iterations 1
smoothSolver:  Solving for Uy, Initial residual = 0.001335767, Final residual = 3.9461475e-08, No Iterations 1
smoothSolver:  Solving for Uz, Initial residual = 0.0013478657, Final residual = 4.0740612e-08, No Iterations 1
DICPCG:  Solving for p, Initial residual = 0.015054435, Final residual = 0.00042880633, No Iterations 2
DICPCG:  Solving for p, Initial residual = 0.0020106312, Final residual = 9.7288343e-05, No Iterations 12
DICPCG:  Solving for p, Initial residual = 0.0004389613, Final residual = 2.0764102e-05, No Iterations 15
time step continuity errors : sum local = 8.1141529e-11, global = 2.2799711e-11, cumulative = -3.4291299e-08
DICPCG:  Solving for p, Initial residual = 0.00015326719, Final residual = 7.4356127e-06, No Iterations 112
DICPCG:  Solving for p, Initial residual = 0.00020908294, Final residual = 8.706029e-06, No Iterations 5
DICPCG:  Solving for p, Initial residual = 4.9296773e-05, Final residual = 9.7905946e-07, No Iterations 59
time step continuity errors : sum local = 3.8235458e-12, global = -2.2374115e-13, cumulative = -3.4291523e-08
ExecutionTime = 32.44 s  ClockTime = 34 s

Time = 3.1

Courant Number mean: 0.00046937212 max: 0.085754646
smoothSolver:  Solving for Ux, Initial residual = 0.0010413771, Final residual = 3.1736324e-08, No Iterations 1
smoothSolver:  Solving for Uy, Initial residual = 0.0012937637, Final residual = 3.8732708e-08, No Iterations 1
smoothSolver:  Solving for Uz, Initial residual = 0.0013055032, Final residual = 3.957386e-08, No Iterations 1
DICPCG:  Solving for p, Initial residual = 0.014623868, Final residual = 0.00042694637, No Iterations 2
DICPCG:  Solving for p, Initial residual = 0.001952111, Final residual = 9.5509224e-05, No Iterations 12
DICPCG:  Solving for p, Initial residual = 0.00042496552, Final residual = 2.0553107e-05, No Iterations 15
time step continuity errors : sum local = 7.8080676e-11, global = 2.3102456e-11, cumulative = -3.426842e-08
DICPCG:  Solving for p, Initial residual = 0.00014968177, Final residual = 6.9540223e-06, No Iterations 132
DICPCG:  Solving for p, Initial residual = 0.00019480628, Final residual = 8.4186692e-06, No Iterations 5
DICPCG:  Solving for p, Initial residual = 4.6702063e-05, Final residual = 9.4456924e-07, No Iterations 48
time step continuity errors : sum local = 3.5861508e-12, global = -3.019204e-13, cumulative = -3.4268722e-08
ExecutionTime = 33.27 s  ClockTime = 35 s

Time = 3.2

Courant Number mean: 0.00046937134 max: 0.085831473
smoothSolver:  Solving for Ux, Initial residual = 0.0010095656, Final residual = 3.11222e-08, No Iterations 1
smoothSolver:  Solving for Uy, Initial residual = 0.0012544786, Final residual = 3.795986e-08, No Iterations 1
smoothSolver:  Solving for Uz, Initial residual = 0.001265841, Final residual = 3.8508305e-08, No Iterations 1
DICPCG:  Solving for p, Initial residual = 0.014206381, Final residual = 0.00040787438, No Iterations 2
DICPCG:  Solving for p, Initial residual = 0.0018897488, Final residual = 8.5974808e-05, No Iterations 13
DICPCG:  Solving for p, Initial residual = 0.00041202608, Final residual = 2.047206e-05, No Iterations 15
time step continuity errors : sum local = 7.5688219e-11, global = 2.1355415e-11, cumulative = -3.4247367e-08
DICPCG:  Solving for p, Initial residual = 0.00014575605, Final residual = 7.2126921e-06, No Iterations 129
DICPCG:  Solving for p, Initial residual = 0.00020353644, Final residual = 8.6060348e-06, No Iterations 5
DICPCG:  Solving for p, Initial residual = 4.8273187e-05, Final residual = 9.6401324e-07, No Iterations 36
time step continuity errors : sum local = 3.5619658e-12, global = -2.9126566e-13, cumulative = -3.4247658e-08
ExecutionTime = 34.08 s  ClockTime = 36 s

Time = 3.3

Courant Number mean: 0.00046937083 max: 0.08590413
smoothSolver:  Solving for Ux, Initial residual = 0.00097959461, Final residual = 3.0509104e-08, No Iterations 1
smoothSolver:  Solving for Uy, Initial residual = 0.0012172672, Final residual = 3.7207341e-08, No Iterations 1
smoothSolver:  Solving for Uz, Initial residual = 0.0012287073, Final residual = 3.744687e-08, No Iterations 1
DICPCG:  Solving for p, Initial residual = 0.013772058, Final residual = 0.00039064368, No Iterations 2
DICPCG:  Solving for p, Initial residual = 0.0018236434, Final residual = 8.658836e-05, No Iterations 13
DICPCG:  Solving for p, Initial residual = 0.00040038088, Final residual = 1.8204287e-05, No Iterations 16
time step continuity errors : sum local = 6.5552778e-11, global = 2.1069893e-11, cumulative = -3.4226588e-08
DICPCG:  Solving for p, Initial residual = 0.00014518943, Final residual = 6.9118719e-06, No Iterations 114
DICPCG:  Solving for p, Initial residual = 0.00017736179, Final residual = 8.0788355e-06, No Iterations 5
DICPCG:  Solving for p, Initial residual = 4.3185063e-05, Final residual = 9.6620889e-07, No Iterations 63
time step continuity errors : sum local = 3.4772654e-12, global = -2.8705369e-13, cumulative = -3.4226875e-08
ExecutionTime = 34.92 s  ClockTime = 37 s

Time = 3.4

Courant Number mean: 0.00046937091 max: 0.085972865
smoothSolver:  Solving for Ux, Initial residual = 0.00095146833, Final residual = 2.9833338e-08, No Iterations 1
smoothSolver:  Solving for Uy, Initial residual = 0.0011820949, Final residual = 3.6417787e-08, No Iterations 1
smoothSolver:  Solving for Uz, Initial residual = 0.0011933756, Final residual = 3.6307767e-08, No Iterations 1
DICPCG:  Solving for p, Initial residual = 0.013451685, Final residual = 0.00040511902, No Iterations 2
DICPCG:  Solving for p, Initial residual = 0.0017812006, Final residual = 8.7297358e-05, No Iterations 13
DICPCG:  Solving for p, Initial residual = 0.00039853719, Final residual = 1.9702524e-05, No Iterations 11
time step continuity errors : sum local = 6.913688e-11, global = 1.9973726e-11, cumulative = -3.4206901e-08
DICPCG:  Solving for p, Initial residual = 0.00013589189, Final residual = 6.7879634e-06, No Iterations 129
DICPCG:  Solving for p, Initial residual = 0.00019251466, Final residual = 7.3435102e-06, No Iterations 5
DICPCG:  Solving for p, Initial residual = 4.514509e-05, Final residual = 9.9237858e-07, No Iterations 38
time step continuity errors : sum local = 3.4803307e-12, global = -1.8259828e-13, cumulative = -3.4207084e-08
ExecutionTime = 35.71 s  ClockTime = 37 s

Time = 3.5

Courant Number mean: 0.00046937115 max: 0.086038454
smoothSolver:  Solving for Ux, Initial residual = 0.00092487811, Final residual = 2.9182697e-08, No Iterations 1
smoothSolver:  Solving for Uy, Initial residual = 0.0011488089, Final residual = 3.5698801e-08, No Iterations 1
smoothSolver:  Solving for Uz, Initial residual = 0.0011600104, Final residual = 3.5294872e-08, No Iterations 1
DICPCG:  Solving for p, Initial residual = 0.013003687, Final residual = 0.00040908649, No Iterations 2
DICPCG:  Solving for p, Initial residual = 0.0017236772, Final residual = 7.4502493e-05, No Iterations 14
DICPCG:  Solving for p, Initial residual = 0.00039453365, Final residual = 1.8387672e-05, No Iterations 10
time step continuity errors : sum local = 6.2933112e-11, global = 1.8739171e-11, cumulative = -3.4188345e-08
DICPCG:  Solving for p, Initial residual = 0.00013404719, Final residual = 6.3751121e-06, No Iterations 133
DICPCG:  Solving for p, Initial residual = 0.00018954942, Final residual = 7.6914258e-06, No Iterations 5
DICPCG:  Solving for p, Initial residual = 4.4776643e-05, Final residual = 9.8976372e-07, No Iterations 41
time step continuity errors : sum local = 3.3857226e-12, global = -1.8706322e-13, cumulative = -3.4188532e-08
ExecutionTime = 36.72 s  ClockTime = 39 s

Time = 3.6

Courant Number mean: 0.00046937131 max: 0.086101295
smoothSolver:  Solving for Ux, Initial residual = 0.00089980093, Final residual = 2.8680543e-08, No Iterations 1
smoothSolver:  Solving for Uy, Initial residual = 0.0011175493, Final residual = 3.5126563e-08, No Iterations 1
smoothSolver:  Solving for Uz, Initial residual = 0.0011285106, Final residual = 3.4355405e-08, No Iterations 1
DICPCG:  Solving for p, Initial residual = 0.012607121, Final residual = 0.00040154506, No Iterations 2
DICPCG:  Solving for p, Initial residual = 0.0016593842, Final residual = 7.2040064e-05, No Iterations 14
DICPCG:  Solving for p, Initial residual = 0.00037859423, Final residual = 1.7794916e-05, No Iterations 10
time step continuity errors : sum local = 5.9458734e-11, global = 1.788068e-11, cumulative = -3.4170651e-08
DICPCG:  Solving for p, Initial residual = 0.00012910149, Final residual = 6.1039838e-06, No Iterations 130
DICPCG:  Solving for p, Initial residual = 0.00018467387, Final residual = 7.3472835e-06, No Iterations 5
DICPCG:  Solving for p, Initial residual = 4.3597407e-05, Final residual = 9.5757334e-07, No Iterations 35
time step continuity errors : sum local = 3.1979162e-12, global = -1.7243567e-13, cumulative = -3.4170824e-08
ExecutionTime = 37.52 s  ClockTime = 39 s

Time = 3.7

Courant Number mean: 0.00046937149 max: 0.086161307
smoothSolver:  Solving for Ux, Initial residual = 0.00087615314, Final residual = 2.8149404e-08, No Iterations 1
smoothSolver:  Solving for Uy, Initial residual = 0.001088056, Final residual = 3.450451e-08, No Iterations 1
smoothSolver:  Solving for Uz, Initial residual = 0.0010988884, Final residual = 3.3476006e-08, No Iterations 1
DICPCG:  Solving for p, Initial residual = 0.012266959, Final residual = 0.00039600178, No Iterations 2
DICPCG:  Solving for p, Initial residual = 0.0016113614, Final residual = 6.8690231e-05, No Iterations 14
DICPCG:  Solving for p, Initial residual = 0.0003653047, Final residual = 1.667402e-05, No Iterations 10
time step continuity errors : sum local = 5.4431061e-11, global = 1.6675629e-11, cumulative = -3.4154148e-08
DICPCG:  Solving for p, Initial residual = 0.00012401197, Final residual = 5.8516065e-06, No Iterations 141
DICPCG:  Solving for p, Initial residual = 0.00018203239, Final residual = 7.0796154e-06, No Iterations 5
DICPCG:  Solving for p, Initial residual = 4.2683429e-05, Final residual = 9.9723245e-07, No Iterations 39
time step continuity errors : sum local = 3.25376e-12, global = -1.9756086e-13, cumulative = -3.4154346e-08
ExecutionTime = 38.35 s  ClockTime = 40 s

Time = 3.8

Courant Number mean: 0.00046937169 max: 0.086219078
smoothSolver:  Solving for Ux, Initial residual = 0.00085381738, Final residual = 2.7629174e-08, No Iterations 1
smoothSolver:  Solving for Uy, Initial residual = 0.0010602018, Final residual = 3.3926636e-08, No Iterations 1
smoothSolver:  Solving for Uz, Initial residual = 0.0010708363, Final residual = 3.2640574e-08, No Iterations 1
DICPCG:  Solving for p, Initial residual = 0.011943027, Final residual = 0.00038975838, No Iterations 2
DICPCG:  Solving for p, Initial residual = 0.00156053, Final residual = 6.7632903e-05, No Iterations 14
DICPCG:  Solving for p, Initial residual = 0.00035522921, Final residual = 1.6510184e-05, No Iterations 10
time step continuity errors : sum local = 5.2688736e-11, global = 1.6473583e-11, cumulative = -3.4137872e-08
DICPCG:  Solving for p, Initial residual = 0.00012098792, Final residual = 5.8478157e-06, No Iterations 132
DICPCG:  Solving for p, Initial residual = 0.00017822339, Final residual = 7.207606e-06, No Iterations 5
DICPCG:  Solving for p, Initial residual = 4.204835e-05, Final residual = 9.8348602e-07, No Iterations 34
time step continuity errors : sum local = 3.1370411e-12, global = -1.8095481e-13, cumulative = -3.4138053e-08
ExecutionTime = 39.13 s  ClockTime = 41 s

Time = 3.9

Courant Number mean: 0.00046937212 max: 0.086274815
smoothSolver:  Solving for Ux, Initial residual = 0.000832576, Final residual = 2.7103896e-08, No Iterations 1
smoothSolver:  Solving for Uy, Initial residual = 0.001033845, Final residual = 3.3338136e-08, No Iterations 1
smoothSolver:  Solving for Uz, Initial residual = 0.0010444079, Final residual = 3.1819694e-08, No Iterations 1
DICPCG:  Solving for p, Initial residual = 0.011702404, Final residual = 0.00039167703, No Iterations 2
DICPCG:  Solving for p, Initial residual = 0.0015275397, Final residual = 6.5687493e-05, No Iterations 14
DICPCG:  Solving for p, Initial residual = 0.00035012939, Final residual = 1.6422533e-05, No Iterations 10
time step continuity errors : sum local = 5.1263806e-11, global = 1.5618737e-11, cumulative = -3.4122434e-08
DICPCG:  Solving for p, Initial residual = 0.00011969333, Final residual = 5.8391052e-06, No Iterations 138
DICPCG:  Solving for p, Initial residual = 0.00017566412, Final residual = 6.8336898e-06, No Iterations 5
DICPCG:  Solving for p, Initial residual = 4.1249304e-05, Final residual = 9.1481408e-07, No Iterations 24
time step continuity errors : sum local = 2.8542842e-12, global = -1.8292975e-13, cumulative = -3.4122617e-08
ExecutionTime = 39.92 s  ClockTime = 42 s

Time = 4

Courant Number mean: 0.0004693726 max: 0.086328501
smoothSolver:  Solving for Ux, Initial residual = 0.00081233171, Final residual = 2.661856e-08, No Iterations 1
smoothSolver:  Solving for Uy, Initial residual = 0.0010088317, Final residual = 3.276294e-08, No Iterations 1
smoothSolver:  Solving for Uz, Initial residual = 0.0010192881, Final residual = 3.1108447e-08, No Iterations 1
DICPCG:  Solving for p, Initial residual = 0.011386085, Final residual = 0.00037897872, No Iterations 2
DICPCG:  Solving for p, Initial residual = 0.0014784434, Final residual = 6.6625951e-05, No Iterations 14
DICPCG:  Solving for p, Initial residual = 0.0003435256, Final residual = 1.6080144e-05, No Iterations 10
time step continuity errors : sum local = 4.9132853e-11, global = 1.4601069e-11, cumulative = -3.4108016e-08
DICPCG:  Solving for p, Initial residual = 0.00011794782, Final residual = 5.7695639e-06, No Iterations 139
DICPCG:  Solving for p, Initial residual = 0.00017266207, Final residual = 6.5928594e-06, No Iterations 5
DICPCG:  Solving for p, Initial residual = 4.0388149e-05, Final residual = 9.9708298e-07, No Iterations 24
time step continuity errors : sum local = 3.0451903e-12, global = -1.630891e-13, cumulative = -3.4108179e-08
ExecutionTime = 40.92 s  ClockTime = 43 s

Time = 4.1

Courant Number mean: 0.00046937311 max: 0.086380476
smoothSolver:  Solving for Ux, Initial residual = 0.00079313098, Final residual = 2.6170518e-08, No Iterations 1
smoothSolver:  Solving for Uy, Initial residual = 0.00098505689, Final residual = 3.2228182e-08, No Iterations 1
smoothSolver:  Solving for Uz, Initial residual = 0.00099543431, Final residual = 3.0416264e-08, No Iterations 1
DICPCG:  Solving for p, Initial residual = 0.011103655, Final residual = 0.00036908915, No Iterations 2
DICPCG:  Solving for p, Initial residual = 0.0014410816, Final residual = 6.5488837e-05, No Iterations 14
DICPCG:  Solving for p, Initial residual = 0.00033864098, Final residual = 1.6272813e-05, No Iterations 10
time step continuity errors : sum local = 4.8703182e-11, global = 1.4888693e-11, cumulative = -3.4093291e-08
DICPCG:  Solving for p, Initial residual = 0.00011715555, Final residual = 5.7345096e-06, No Iterations 144
DICPCG:  Solving for p, Initial residual = 0.00017490092, Final residual = 8.7006552e-06, No Iterations 4
DICPCG:  Solving for p, Initial residual = 4.1048301e-05, Final residual = 9.2007206e-07, No Iterations 39
time step continuity errors : sum local = 2.7524215e-12, global = -1.4031616e-13, cumulative = -3.4093431e-08
ExecutionTime = 41.76 s  ClockTime = 44 s

Time = 4.2

Courant Number mean: 0.00046937373 max: 0.086431292
smoothSolver:  Solving for Ux, Initial residual = 0.00077485889, Final residual = 2.5737545e-08, No Iterations 1
smoothSolver:  Solving for Uy, Initial residual = 0.00096234532, Final residual = 3.1662437e-08, No Iterations 1
smoothSolver:  Solving for Uz, Initial residual = 0.00097288603, Final residual = 2.9802197e-08, No Iterations 1
DICPCG:  Solving for p, Initial residual = 0.010823055, Final residual = 0.00037263643, No Iterations 2
DICPCG:  Solving for p, Initial residual = 0.0014039582, Final residual = 6.653923e-05, No Iterations 14
DICPCG:  Solving for p, Initial residual = 0.00033434453, Final residual = 1.6279581e-05, No Iterations 10
time step continuity errors : sum local = 4.7752764e-11, global = 1.4690448e-11, cumulative = -3.407874e-08
DICPCG:  Solving for p, Initial residual = 0.0001171561, Final residual = 5.7511349e-06, No Iterations 134
DICPCG:  Solving for p, Initial residual = 0.00017178639, Final residual = 6.6636666e-06, No Iterations 5
DICPCG:  Solving for p, Initial residual = 4.0171008e-05, Final residual = 9.9945785e-07, No Iterations 33
time step continuity errors : sum local = 2.930355e-12, global = -1.4320626e-13, cumulative = -3.4078884e-08
ExecutionTime = 42.56 s  ClockTime = 45 s

Time = 4.3

Courant Number mean: 0.00046937444 max: 0.08648145
smoothSolver:  Solving for Ux, Initial residual = 0.00075750794, Final residual = 2.5292295e-08, No Iterations 1
smoothSolver:  Solving for Uy, Initial residual = 0.00094070026, Final residual = 3.1050023e-08, No Iterations 1
smoothSolver:  Solving for Uz, Initial residual = 0.000951447, Final residual = 2.9104351e-08, No Iterations 1
DICPCG:  Solving for p, Initial residual = 0.010647312, Final residual = 0.00035887477, No Iterations 2
DICPCG:  Solving for p, Initial residual = 0.0013766252, Final residual = 6.4797588e-05, No Iterations 14
DICPCG:  Solving for p, Initial residual = 0.00033185186, Final residual = 1.6314628e-05, No Iterations 10
time step continuity errors : sum local = 4.6917121e-11, global = 1.4295487e-11, cumulative = -3.4064588e-08
DICPCG:  Solving for p, Initial residual = 0.00011659033, Final residual = 5.7147526e-06, No Iterations 136
DICPCG:  Solving for p, Initial residual = 0.00017250135, Final residual = 6.7074088e-06, No Iterations 5
DICPCG:  Solving for p, Initial residual = 4.0251186e-05, Final residual = 9.9727837e-07, No Iterations 39
time step continuity errors : sum local = 2.8666404e-12, global = -1.6210808e-13, cumulative = -3.406475e-08
ExecutionTime = 43.36 s  ClockTime = 45 s

Time = 4.4

Courant Number mean: 0.00046937514 max: 0.086531426
smoothSolver:  Solving for Ux, Initial residual = 0.00074096802, Final residual = 2.4831276e-08, No Iterations 1
smoothSolver:  Solving for Uy, Initial residual = 0.00092000489, Final residual = 3.0400808e-08, No Iterations 1
smoothSolver:  Solving for Uz, Initial residual = 0.00093112908, Final residual = 2.8570226e-08, No Iterations 1
DICPCG:  Solving for p, Initial residual = 0.010399024, Final residual = 0.00035537651, No Iterations 2
DICPCG:  Solving for p, Initial residual = 0.0013413199, Final residual = 6.657392e-05, No Iterations 14
DICPCG:  Solving for p, Initial residual = 0.00032844136, Final residual = 1.5672861e-05, No Iterations 11
time step continuity errors : sum local = 4.4211661e-11, global = 1.3640195e-11, cumulative = -3.405111e-08
DICPCG:  Solving for p, Initial residual = 0.00011824082, Final residual = 5.8830227e-06, No Iterations 142
DICPCG:  Solving for p, Initial residual = 0.00017192892, Final residual = 8.3432933e-06, No Iterations 4
DICPCG:  Solving for p, Initial residual = 4.0252418e-05, Final residual = 9.1264793e-07, No Iterations 39
time step continuity errors : sum local = 2.5733461e-12, global = -1.4885905e-13, cumulative = -3.4051259e-08
ExecutionTime = 44.18 s  ClockTime = 46 s

Time = 4.5

Courant Number mean: 0.00046937601 max: 0.086580486
smoothSolver:  Solving for Ux, Initial residual = 0.00072510125, Final residual = 2.4400644e-08, No Iterations 1
smoothSolver:  Solving for Uy, Initial residual = 0.00090019671, Final residual = 2.9835153e-08, No Iterations 1
smoothSolver:  Solving for Uz, Initial residual = 0.00091163915, Final residual = 2.8084826e-08, No Iterations 1
DICPCG:  Solving for p, Initial residual = 0.010148241, Final residual = 0.00035250602, No Iterations 2
DICPCG:  Solving for p, Initial residual = 0.0013018481, Final residual = 5.1806346e-05, No Iterations 15
DICPCG:  Solving for p, Initial residual = 0.00031203011, Final residual = 1.4527558e-05, No Iterations 10
time step continuity errors : sum local = 4.0217169e-11, global = 1.2321477e-11, cumulative = -3.4038937e-08
DICPCG:  Solving for p, Initial residual = 0.00010789712, Final residual = 5.3605371e-06, No Iterations 144
DICPCG:  Solving for p, Initial residual = 0.00016162551, Final residual = 7.8938968e-06, No Iterations 4
DICPCG:  Solving for p, Initial residual = 3.7839185e-05, Final residual = 9.3643603e-07, No Iterations 36
time step continuity errors : sum local = 2.5912858e-12, global = -1.3275088e-13, cumulative = -3.403907e-08
ExecutionTime = 45.21 s  ClockTime = 47 s

Time = 4.6

Courant Number mean: 0.00046937721 max: 0.086629056
smoothSolver:  Solving for Ux, Initial residual = 0.0007098377, Final residual = 2.3976484e-08, No Iterations 1
smoothSolver:  Solving for Uy, Initial residual = 0.00088123022, Final residual = 2.9346578e-08, No Iterations 1
smoothSolver:  Solving for Uz, Initial residual = 0.00089300771, Final residual = 2.7619804e-08, No Iterations 1
DICPCG:  Solving for p, Initial residual = 0.0099387275, Final residual = 0.00035778159, No Iterations 2
DICPCG:  Solving for p, Initial residual = 0.0012759038, Final residual = 5.394746e-05, No Iterations 15
DICPCG:  Solving for p, Initial residual = 0.00031403254, Final residual = 1.5126911e-05, No Iterations 10
time step continuity errors : sum local = 4.1115791e-11, global = 1.1995413e-11, cumulative = -3.4027075e-08
DICPCG:  Solving for p, Initial residual = 0.00011114623, Final residual = 5.3432883e-06, No Iterations 141
DICPCG:  Solving for p, Initial residual = 0.00015972992, Final residual = 6.2710981e-06, No Iterations 5
DICPCG:  Solving for p, Initial residual = 3.7187306e-05, Final residual = 9.6466056e-07, No Iterations 39
time step continuity errors : sum local = 2.6209212e-12, global = -1.3319442e-13, cumulative = -3.4027208e-08
ExecutionTime = 46.04 s  ClockTime = 48 s

Time = 4.7

Courant Number mean: 0.00046937844 max: 0.08667761
smoothSolver:  Solving for Ux, Initial residual = 0.00069524323, Final residual = 2.3575054e-08, No Iterations 1
smoothSolver:  Solving for Uy, Initial residual = 0.00086303395, Final residual = 2.8880533e-08, No Iterations 1
smoothSolver:  Solving for Uz, Initial residual = 0.00087514337, Final residual = 2.718731e-08, No Iterations 1
DICPCG:  Solving for p, Initial residual = 0.009735998, Final residual = 0.00035043541, No Iterations 2
DICPCG:  Solving for p, Initial residual = 0.0012499364, Final residual = 5.2984217e-05, No Iterations 15
DICPCG:  Solving for p, Initial residual = 0.00031051564, Final residual = 1.524403e-05, No Iterations 10
time step continuity errors : sum local = 4.0699683e-11, global = 1.2068362e-11, cumulative = -3.401514e-08
DICPCG:  Solving for p, Initial residual = 0.00011011618, Final residual = 5.302082e-06, No Iterations 144
DICPCG:  Solving for p, Initial residual = 0.00016318058, Final residual = 6.3592925e-06, No Iterations 5
DICPCG:  Solving for p, Initial residual = 3.7943003e-05, Final residual = 9.5543259e-07, No Iterations 24
time step continuity errors : sum local = 2.5498306e-12, global = -1.4082182e-13, cumulative = -3.401528e-08
ExecutionTime = 46.83 s  ClockTime = 49 s

Time = 4.8

Courant Number mean: 0.00046937974 max: 0.086726225
smoothSolver:  Solving for Ux, Initial residual = 0.00068130691, Final residual = 2.3100648e-08, No Iterations 1
smoothSolver:  Solving for Uy, Initial residual = 0.00084585611, Final residual = 2.8354298e-08, No Iterations 1
smoothSolver:  Solving for Uz, Initial residual = 0.00085807067, Final residual = 2.6569318e-08, No Iterations 1
DICPCG:  Solving for p, Initial residual = 0.0096234213, Final residual = 0.00032299565, No Iterations 2
DICPCG:  Solving for p, Initial residual = 0.0012236799, Final residual = 5.1367234e-05, No Iterations 15
DICPCG:  Solving for p, Initial residual = 0.00030445868, Final residual = 1.4729319e-05, No Iterations 11
time step continuity errors : sum local = 3.8638573e-11, global = 1.2916565e-11, cumulative = -3.4002364e-08
DICPCG:  Solving for p, Initial residual = 0.00011019112, Final residual = 5.420532e-06, No Iterations 147
DICPCG:  Solving for p, Initial residual = 0.00016763342, Final residual = 6.6991676e-06, No Iterations 5
DICPCG:  Solving for p, Initial residual = 3.9166356e-05, Final residual = 9.7115108e-07, No Iterations 24
time step continuity errors : sum local = 2.5464483e-12, global = -1.3945524e-13, cumulative = -3.4002503e-08
ExecutionTime = 47.6 s  ClockTime = 50 s

Time = 4.9

Courant Number mean: 0.0004693811 max: 0.086775042
smoothSolver:  Solving for Ux, Initial residual = 0.00066777825, Final residual = 2.2748441e-08, No Iterations 1
smoothSolver:  Solving for Uy, Initial residual = 0.00082936675, Final residual = 2.7727731e-08, No Iterations 1
smoothSolver:  Solving for Uz, Initial residual = 0.00084169715, Final residual = 2.6116108e-08, No Iterations 1
DICPCG:  Solving for p, Initial residual = 0.0095457368, Final residual = 0.00032297615, No Iterations 2
DICPCG:  Solving for p, Initial residual = 0.0012129276, Final residual = 5.7902612e-05, No Iterations 14
DICPCG:  Solving for p, Initial residual = 0.00030452565, Final residual = 1.4783406e-05, No Iterations 142
time step continuity errors : sum local = 3.8110007e-11, global = -1.2305711e-14, cumulative = -3.4002516e-08
DICPCG:  Solving for p, Initial residual = 0.00021743993, Final residual = 9.7248387e-06, No Iterations 8
DICPCG:  Solving for p, Initial residual = 5.7617646e-05, Final residual = 2.8692508e-06, No Iterations 39
DICPCG:  Solving for p, Initial residual = 3.6688412e-05, Final residual = 9.9662701e-07, No Iterations 49
time step continuity errors : sum local = 2.5678358e-12, global = -3.0635599e-13, cumulative = -3.4002822e-08
ExecutionTime = 48.53 s  ClockTime = 51 s

Time = 5

Courant Number mean: 0.00046938282 max: 0.086820819
smoothSolver:  Solving for Ux, Initial residual = 0.00065482322, Final residual = 2.2130299e-08, No Iterations 1
smoothSolver:  Solving for Uy, Initial residual = 0.00081351685, Final residual = 2.7180483e-08, No Iterations 1
smoothSolver:  Solving for Uz, Initial residual = 0.00082597379, Final residual = 2.5628605e-08, No Iterations 1
DICPCG:  Solving for p, Initial residual = 0.0092823131, Final residual = 0.00032578759, No Iterations 2
DICPCG:  Solving for p, Initial residual = 0.0011852827, Final residual = 4.9456412e-05, No Iterations 15
DICPCG:  Solving for p, Initial residual = 0.00029212212, Final residual = 1.4581658e-05, No Iterations 11
time step continuity errors : sum local = 3.6957348e-11, global = 1.2898084e-11, cumulative = -3.3989924e-08
DICPCG:  Solving for p, Initial residual = 0.00010981131, Final residual = 5.3774943e-06, No Iterations 118
DICPCG:  Solving for p, Initial residual = 0.00015165632, Final residual = 6.4132105e-06, No Iterations 5
DICPCG:  Solving for p, Initial residual = 3.5925799e-05, Final residual = 9.8707247e-07, No Iterations 56
time step continuity errors : sum local = 2.5006679e-12, global = -1.3121119e-13, cumulative = -3.3990055e-08
ExecutionTime = 49.55 s  ClockTime = 52 s

Time = 5.1

Courant Number mean: 0.00046938485 max: 0.086868151
smoothSolver:  Solving for Ux, Initial residual = 0.00064249378, Final residual = 2.167264e-08, No Iterations 1
smoothSolver:  Solving for Uy, Initial residual = 0.00079821278, Final residual = 2.6729765e-08, No Iterations 1
smoothSolver:  Solving for Uz, Initial residual = 0.0008108332, Final residual = 2.5190039e-08, No Iterations 1
DICPCG:  Solving for p, Initial residual = 0.0089976125, Final residual = 0.00033094436, No Iterations 2
DICPCG:  Solving for p, Initial residual = 0.0011434295, Final residual = 5.2827308e-05, No Iterations 15
DICPCG:  Solving for p, Initial residual = 0.00029218735, Final residual = 1.4270774e-05, No Iterations 11
time step continuity errors : sum local = 3.5581768e-11, global = 1.1227338e-11, cumulative = -3.3978828e-08
DICPCG:  Solving for p, Initial residual = 0.00010803533, Final residual = 5.3602209e-06, No Iterations 134
DICPCG:  Solving for p, Initial residual = 0.00016062848, Final residual = 6.530736e-06, No Iterations 5
DICPCG:  Solving for p, Initial residual = 3.7447941e-05, Final residual = 9.2007944e-07, No Iterations 40
time step continuity errors : sum local = 2.2931393e-12, global = -1.2257065e-13, cumulative = -3.397895e-08
ExecutionTime = 50.38 s  ClockTime = 53 s

Time = 5.2

Courant Number mean: 0.0004693868 max: 0.086917332
smoothSolver:  Solving for Ux, Initial residual = 0.00063063942, Final residual = 2.1266082e-08, No Iterations 1
smoothSolver:  Solving for Uy, Initial residual = 0.00078370173, Final residual = 2.628905e-08, No Iterations 1
smoothSolver:  Solving for Uz, Initial residual = 0.0007961576, Final residual = 2.4760656e-08, No Iterations 1
DICPCG:  Solving for p, Initial residual = 0.0088012992, Final residual = 0.00032670984, No Iterations 2
DICPCG:  Solving for p, Initial residual = 0.0011120895, Final residual = 5.361678e-05, No Iterations 15
DICPCG:  Solving for p, Initial residual = 0.00029423713, Final residual = 1.4350927e-05, No Iterations 17
time step continuity errors : sum local = 3.5213699e-11, global = 1.0481488e-11, cumulative = -3.3968469e-08
DICPCG:  Solving for p, Initial residual = 0.00012241542, Final residual = 6.0109534e-06, No Iterations 120
DICPCG:  Solving for p, Initial residual = 0.00015734024, Final residual = 7.0295439e-06, No Iterations 5
DICPCG:  Solving for p, Initial residual = 3.6983695e-05, Final residual = 9.9429757e-07, No Iterations 44
time step continuity errors : sum local = 2.4387894e-12, global = -1.0980167e-13, cumulative = -3.3968579e-08
ExecutionTime = 51.28 s  ClockTime = 54 s

Time = 5.3

Courant Number mean: 0.00046938874 max: 0.086967912
smoothSolver:  Solving for Ux, Initial residual = 0.00061934492, Final residual = 2.0904082e-08, No Iterations 1
smoothSolver:  Solving for Uy, Initial residual = 0.00076987938, Final residual = 2.586386e-08, No Iterations 1
smoothSolver:  Solving for Uz, Initial residual = 0.0007819669, Final residual = 2.4342821e-08, No Iterations 1
DICPCG:  Solving for p, Initial residual = 0.0086009156, Final residual = 0.00031770422, No Iterations 2
DICPCG:  Solving for p, Initial residual = 0.001080153, Final residual = 5.2106568e-05, No Iterations 15
DICPCG:  Solving for p, Initial residual = 0.00028395366, Final residual = 1.4051678e-05, No Iterations 22
time step continuity errors : sum local = 3.3946651e-11, global = 1.0504593e-11, cumulative = -3.3958074e-08
DICPCG:  Solving for p, Initial residual = 0.00012469128, Final residual = 6.1986244e-06, No Iterations 114
DICPCG:  Solving for p, Initial residual = 0.00015569301, Final residual = 6.9918462e-06, No Iterations 5
DICPCG:  Solving for p, Initial residual = 3.672474e-05, Final residual = 9.5928247e-07, No Iterations 30
time step continuity errors : sum local = 2.316569e-12, global = -9.0254032e-14, cumulative = -3.3958164e-08
ExecutionTime = 52.14 s  ClockTime = 54 s

Time = 5.4

Courant Number mean: 0.00046939089 max: 0.087019347
smoothSolver:  Solving for Ux, Initial residual = 0.00060863037, Final residual = 2.0550109e-08, No Iterations 1
smoothSolver:  Solving for Uy, Initial residual = 0.00075656527, Final residual = 2.5398953e-08, No Iterations 1
smoothSolver:  Solving for Uz, Initial residual = 0.00076840394, Final residual = 2.3898631e-08, No Iterations 1
DICPCG:  Solving for p, Initial residual = 0.0084826161, Final residual = 0.00030321743, No Iterations 2
DICPCG:  Solving for p, Initial residual = 0.0010633597, Final residual = 4.7870817e-05, No Iterations 15
DICPCG:  Solving for p, Initial residual = 0.00027296477, Final residual = 1.3460206e-05, No Iterations 11
time step continuity errors : sum local = 3.2025436e-11, global = 1.0804586e-11, cumulative = -3.394736e-08
DICPCG:  Solving for p, Initial residual = 0.00010123206, Final residual = 4.5598195e-06, No Iterations 121
DICPCG:  Solving for p, Initial residual = 0.00015045381, Final residual = 6.190756e-06, No Iterations 5
DICPCG:  Solving for p, Initial residual = 3.5101206e-05, Final residual = 9.7815325e-07, No Iterations 41
time step continuity errors : sum local = 2.3263941e-12, global = -9.3431866e-14, cumulative = -3.3947453e-08
ExecutionTime = 52.94 s  ClockTime = 55 s

Time = 5.5

Courant Number mean: 0.00046939306 max: 0.087071386
smoothSolver:  Solving for Ux, Initial residual = 0.00059829646, Final residual = 2.0215358e-08, No Iterations 1
smoothSolver:  Solving for Uy, Initial residual = 0.0007436621, Final residual = 2.492369e-08, No Iterations 1
smoothSolver:  Solving for Uz, Initial residual = 0.00075539847, Final residual = 2.3465401e-08, No Iterations 1
DICPCG:  Solving for p, Initial residual = 0.0082795247, Final residual = 0.00031629725, No Iterations 2
DICPCG:  Solving for p, Initial residual = 0.0010387977, Final residual = 4.7757727e-05, No Iterations 15
DICPCG:  Solving for p, Initial residual = 0.00026727559, Final residual = 1.3190765e-05, No Iterations 11
time step continuity errors : sum local = 3.0921925e-11, global = 1.072884e-11, cumulative = -3.3936724e-08
DICPCG:  Solving for p, Initial residual = 9.7432696e-05, Final residual = 4.4176989e-06, No Iterations 120
DICPCG:  Solving for p, Initial residual = 0.0001513902, Final residual = 6.0542034e-06, No Iterations 5
DICPCG:  Solving for p, Initial residual = 3.5040013e-05, Final residual = 9.7630313e-07, No Iterations 46
time step continuity errors : sum local = 2.2877803e-12, global = -8.1040227e-14, cumulative = -3.3936805e-08
ExecutionTime = 54.03 s  ClockTime = 56 s

Time = 5.6

Courant Number mean: 0.0004693952 max: 0.087123891
smoothSolver:  Solving for Ux, Initial residual = 0.00058828132, Final residual = 1.9897074e-08, No Iterations 1
smoothSolver:  Solving for Uy, Initial residual = 0.00073132118, Final residual = 2.4509254e-08, No Iterations 1
smoothSolver:  Solving for Uz, Initial residual = 0.00074304963, Final residual = 2.3080633e-08, No Iterations 1
DICPCG:  Solving for p, Initial residual = 0.0081286368, Final residual = 0.00031236632, No Iterations 2
DICPCG:  Solving for p, Initial residual = 0.0010187988, Final residual = 4.6263934e-05, No Iterations 15
DICPCG:  Solving for p, Initial residual = 0.0002613169, Final residual = 1.2114771e-05, No Iterations 23
time step continuity errors : sum local = 2.7989697e-11, global = 1.035084e-11, cumulative = -3.3926454e-08
DICPCG:  Solving for p, Initial residual = 0.00011494352, Final residual = 5.3232488e-06, No Iterations 115
DICPCG:  Solving for p, Initial residual = 0.0001435236, Final residual = 6.2664756e-06, No Iterations 5
DICPCG:  Solving for p, Initial residual = 3.3846158e-05, Final residual = 9.6179726e-07, No Iterations 49
time step continuity errors : sum local = 2.2212751e-12, global = -1.4023406e-13, cumulative = -3.3926595e-08
ExecutionTime = 54.86 s  ClockTime = 57 s

Time = 5.7

Courant Number mean: 0.00046939737 max: 0.087176764
smoothSolver:  Solving for Ux, Initial residual = 0.00057861886, Final residual = 1.9583376e-08, No Iterations 1
smoothSolver:  Solving for Uy, Initial residual = 0.00071943969, Final residual = 2.412359e-08, No Iterations 1
smoothSolver:  Solving for Uz, Initial residual = 0.00073111964, Final residual = 2.2689984e-08, No Iterations 1
DICPCG:  Solving for p, Initial residual = 0.0079619326, Final residual = 0.00031437441, No Iterations 2
DICPCG:  Solving for p, Initial residual = 0.00099825206, Final residual = 4.7227944e-05, No Iterations 15
DICPCG:  Solving for p, Initial residual = 0.00026054127, Final residual = 1.2974281e-05, No Iterations 11
time step continuity errors : sum local = 2.9552584e-11, global = 1.0252706e-11, cumulative = -3.3916342e-08
DICPCG:  Solving for p, Initial residual = 9.5059119e-05, Final residual = 4.542837e-06, No Iterations 133
DICPCG:  Solving for p, Initial residual = 0.00014996898, Final residual = 6.0086949e-06, No Iterations 5
DICPCG:  Solving for p, Initial residual = 3.4745665e-05, Final residual = 9.9375467e-07, No Iterations 34
time step continuity errors : sum local = 2.2627077e-12, global = -1.1103056e-13, cumulative = -3.3916453e-08
ExecutionTime = 55.66 s  ClockTime = 58 s

Time = 5.8

Courant Number mean: 0.00046939956 max: 0.087229875
smoothSolver:  Solving for Ux, Initial residual = 0.00056921243, Final residual = 1.9279144e-08, No Iterations 1
smoothSolver:  Solving for Uy, Initial residual = 0.00070796177, Final residual = 2.3749661e-08, No Iterations 1
smoothSolver:  Solving for Uz, Initial residual = 0.00071960105, Final residual = 2.2300629e-08, No Iterations 1
DICPCG:  Solving for p, Initial residual = 0.0078226176, Final residual = 0.0003062561, No Iterations 2
DICPCG:  Solving for p, Initial residual = 0.00097800092, Final residual = 4.6995022e-05, No Iterations 15
DICPCG:  Solving for p, Initial residual = 0.00025634754, Final residual = 1.2011474e-05, No Iterations 23
time step continuity errors : sum local = 2.6981193e-11, global = 9.8428966e-12, cumulative = -3.390661e-08
DICPCG:  Solving for p, Initial residual = 0.00011389934, Final residual = 5.2601847e-06, No Iterations 93
DICPCG:  Solving for p, Initial residual = 0.00013307561, Final residual = 6.0007721e-06, No Iterations 5
DICPCG:  Solving for p, Initial residual = 3.1556194e-05, Final residual = 9.6522883e-07, No Iterations 50
time step continuity errors : sum local = 2.1673948e-12, global = -1.0395376e-13, cumulative = -3.3906714e-08
ExecutionTime = 56.43 s  ClockTime = 59 s

Time = 5.9

Courant Number mean: 0.00046940177 max: 0.087283043
smoothSolver:  Solving for Ux, Initial residual = 0.00056023171, Final residual = 1.8977271e-08, No Iterations 1
smoothSolver:  Solving for Uy, Initial residual = 0.00069686772, Final residual = 2.3383723e-08, No Iterations 1
smoothSolver:  Solving for Uz, Initial residual = 0.00070847721, Final residual = 2.1922569e-08, No Iterations 1
DICPCG:  Solving for p, Initial residual = 0.0076966336, Final residual = 0.0002973502, No Iterations 2
DICPCG:  Solving for p, Initial residual = 0.00096071756, Final residual = 4.638837e-05, No Iterations 15
DICPCG:  Solving for p, Initial residual = 0.00025351707, Final residual = 1.1685792e-05, No Iterations 23
time step continuity errors : sum local = 2.5893465e-11, global = 9.4488423e-12, cumulative = -3.3897265e-08
DICPCG:  Solving for p, Initial residual = 0.00011271695, Final residual = 5.4343087e-06, No Iterations 117
DICPCG:  Solving for p, Initial residual = 0.00014917446, Final residual = 6.2790264e-06, No Iterations 5
DICPCG:  Solving for p, Initial residual = 3.4619256e-05, Final residual = 9.7640595e-07, No Iterations 33
time step continuity errors : sum local = 2.1627395e-12, global = -1.0085754e-13, cumulative = -3.3897366e-08
ExecutionTime = 57.17 s  ClockTime = 60 s

Time = 6

Courant Number mean: 0.00046940393 max: 0.087336563
smoothSolver:  Solving for Ux, Initial residual = 0.00055153886, Final residual = 1.8704365e-08, No Iterations 1
smoothSolver:  Solving for Uy, Initial residual = 0.00068618455, Final residual = 2.2983536e-08, No Iterations 1
smoothSolver:  Solving for Uz, Initial residual = 0.00069774899, Final residual = 2.1578543e-08, No Iterations 1
DICPCG:  Solving for p, Initial residual = 0.0076082765, Final residual = 0.00029536307, No Iterations 2
DICPCG:  Solving for p, Initial residual = 0.000953291, Final residual = 4.5733981e-05, No Iterations 15
DICPCG:  Solving for p, Initial residual = 0.00025241217, Final residual = 1.2514518e-05, No Iterations 11
time step continuity errors : sum local = 2.7359939e-11, global = 9.0656433e-12, cumulative = -3.38883e-08
DICPCG:  Solving for p, Initial residual = 9.2466042e-05, Final residual = 4.4486344e-06, No Iterations 105
DICPCG:  Solving for p, Initial residual = 0.00013526937, Final residual = 5.2984993e-06, No Iterations 5
DICPCG:  Solving for p, Initial residual = 3.1257988e-05, Final residual = 9.4112284e-07, No Iterations 33
time step continuity errors : sum local = 2.0568392e-12, global = -8.872004e-14, cumulative = -3.3888389e-08
ExecutionTime = 58.08 s  ClockTime = 61 s

Time = 6.1

Courant Number mean: 0.00046940615 max: 0.087390554
smoothSolver:  Solving for Ux, Initial residual = 0.00054317942, Final residual = 1.8403338e-08, No Iterations 1
smoothSolver:  Solving for Uy, Initial residual = 0.00067589899, Final residual = 2.2660024e-08, No Iterations 1
smoothSolver:  Solving for Uz, Initial residual = 0.00068741384, Final residual = 2.1246589e-08, No Iterations 1
DICPCG:  Solving for p, Initial residual = 0.0075079914, Final residual = 0.0002991575, No Iterations 2
DICPCG:  Solving for p, Initial residual = 0.00094389478, Final residual = 4.4762704e-05, No Iterations 15
DICPCG:  Solving for p, Initial residual = 0.00025148531, Final residual = 1.1440061e-05, No Iterations 23
time step continuity errors : sum local = 2.4685444e-11, global = 8.7077155e-12, cumulative = -3.3879681e-08
DICPCG:  Solving for p, Initial residual = 0.00011258972, Final residual = 5.6204846e-06, No Iterations 115
[...]
DICPCG:  Solving for p, Initial residual = 3.6435508e-05, Final residual = 1.7539335e-06, No Iterations 5
DICPCG:  Solving for p, Initial residual = 8.7610121e-06, Final residual = 8.193405e-07, No Iterations 3
time step continuity errors : sum local = 8.3827263e-13, global = 3.0070768e-15, cumulative = -3.3564511e-08
ExecutionTime = 173.14 s  ClockTime = 184 s

Time = 18.6

Courant Number mean: 0.00047000943 max: 0.093890386
smoothSolver:  Solving for Ux, Initial residual = 0.00021898332, Final residual = 5.234605e-09, No Iterations 1
smoothSolver:  Solving for Uy, Initial residual = 0.00027903953, Final residual = 6.4442664e-09, No Iterations 1
smoothSolver:  Solving for Uz, Initial residual = 0.00031908938, Final residual = 6.5618291e-09, No Iterations 1
DICPCG:  Solving for p, Initial residual = 0.0023944135, Final residual = 8.5995929e-05, No Iterations 2
DICPCG:  Solving for p, Initial residual = 0.00030246964, Final residual = 1.4978009e-05, No Iterations 13
DICPCG:  Solving for p, Initial residual = 9.1053723e-05, Final residual = 4.509595e-06, No Iterations 14
time step continuity errors : sum local = 4.600673e-12, global = 6.70941e-13, cumulative = -3.356384e-08
DICPCG:  Solving for p, Initial residual = 3.2592801e-05, Final residual = 1.568517e-06, No Iterations 140
DICPCG:  Solving for p, Initial residual = 2.9773772e-05, Final residual = 1.1137144e-06, No Iterations 6
DICPCG:  Solving for p, Initial residual = 7.2049449e-06, Final residual = 7.8330346e-07, No Iterations 3
time step continuity errors : sum local = 7.9908836e-13, global = 4.7591531e-15, cumulative = -3.3563835e-08
ExecutionTime = 174.12 s  ClockTime = 185 s

Time = 18.7

Courant Number mean: 0.00047001574 max: 0.093920293
smoothSolver:  Solving for Ux, Initial residual = 0.00021823326, Final residual = 5.2074855e-09, No Iterations 1
smoothSolver:  Solving for Uy, Initial residual = 0.0002781448, Final residual = 6.41184e-09, No Iterations 1
smoothSolver:  Solving for Uz, Initial residual = 0.00031840559, Final residual = 6.5237424e-09, No Iterations 1
DICPCG:  Solving for p, Initial residual = 0.0023047368, Final residual = 7.8762419e-05, No Iterations 2
DICPCG:  Solving for p, Initial residual = 0.00027564697, Final residual = 1.2162718e-05, No Iterations 14
DICPCG:  Solving for p, Initial residual = 7.8769892e-05, Final residual = 3.8662782e-06, No Iterations 15
time step continuity errors : sum local = 3.9336363e-12, global = 9.4887099e-13, cumulative = -3.3562886e-08
DICPCG:  Solving for p, Initial residual = 2.7994683e-05, Final residual = 1.2917212e-06, No Iterations 149
DICPCG:  Solving for p, Initial residual = 2.8855087e-05, Final residual = 1.0404041e-06, No Iterations 6
DICPCG:  Solving for p, Initial residual = 6.8788281e-06, Final residual = 8.9072717e-07, No Iterations 2
time step continuity errors : sum local = 9.0618842e-13, global = -1.399935e-14, cumulative = -3.35629e-08
ExecutionTime = 175.03 s  ClockTime = 186 s

Time = 18.8

Courant Number mean: 0.00047002206 max: 0.093949642
smoothSolver:  Solving for Ux, Initial residual = 0.00021752327, Final residual = 5.1743791e-09, No Iterations 1
smoothSolver:  Solving for Uy, Initial residual = 0.00027723338, Final residual = 6.374602e-09, No Iterations 1
smoothSolver:  Solving for Uz, Initial residual = 0.00031769188, Final residual = 6.4824544e-09, No Iterations 1
DICPCG:  Solving for p, Initial residual = 0.0023043481, Final residual = 7.7151628e-05, No Iterations 2
DICPCG:  Solving for p, Initial residual = 0.00027378475, Final residual = 1.2085427e-05, No Iterations 14
DICPCG:  Solving for p, Initial residual = 7.7158559e-05, Final residual = 3.81194e-06, No Iterations 11
time step continuity errors : sum local = 3.8677832e-12, global = 1.1558578e-12, cumulative = -3.3561744e-08
DICPCG:  Solving for p, Initial residual = 2.6111882e-05, Final residual = 1.303675e-06, No Iterations 153
DICPCG:  Solving for p, Initial residual = 3.3034929e-05, Final residual = 1.5855746e-06, No Iterations 5
DICPCG:  Solving for p, Initial residual = 7.9413963e-06, Final residual = 7.7106741e-07, No Iterations 3
time step continuity errors : sum local = 7.823061e-13, global = 5.1776731e-15, cumulative = -3.3561739e-08
ExecutionTime = 176.04 s  ClockTime = 187 s

Time = 18.9

Courant Number mean: 0.00047002837 max: 0.093978442
smoothSolver:  Solving for Ux, Initial residual = 0.00021681426, Final residual = 5.1348763e-09, No Iterations 1
smoothSolver:  Solving for Uy, Initial residual = 0.00027641525, Final residual = 6.3264306e-09, No Iterations 1
smoothSolver:  Solving for Uz, Initial residual = 0.0003170061, Final residual = 6.4428297e-09, No Iterations 1
DICPCG:  Solving for p, Initial residual = 0.0023122795, Final residual = 8.8108172e-05, No Iterations 2
DICPCG:  Solving for p, Initial residual = 0.00028206312, Final residual = 1.3819916e-05, No Iterations 13
DICPCG:  Solving for p, Initial residual = 8.5511501e-05, Final residual = 3.991015e-06, No Iterations 17
time step continuity errors : sum local = 4.0381804e-12, global = 1.2413328e-12, cumulative = -3.3560498e-08
DICPCG:  Solving for p, Initial residual = 3.1823409e-05, Final residual = 1.4646761e-06, No Iterations 150
DICPCG:  Solving for p, Initial residual = 3.7821736e-05, Final residual = 1.8518387e-06, No Iterations 5
DICPCG:  Solving for p, Initial residual = 9.0486305e-06, Final residual = 9.0504183e-07, No Iterations 3
time step continuity errors : sum local = 9.1566396e-13, global = 1.541268e-15, cumulative = -3.3560496e-08
ExecutionTime = 177.08 s  ClockTime = 188 s

Time = 19

Courant Number mean: 0.00047003471 max: 0.094006642
smoothSolver:  Solving for Ux, Initial residual = 0.00021614301, Final residual = 5.0771141e-09, No Iterations 1
smoothSolver:  Solving for Uy, Initial residual = 0.00027566306, Final residual = 6.254988e-09, No Iterations 1
smoothSolver:  Solving for Uz, Initial residual = 0.00031635752, Final residual = 6.3835373e-09, No Iterations 1
DICPCG:  Solving for p, Initial residual = 0.0023364999, Final residual = 9.1854295e-05, No Iterations 2
DICPCG:  Solving for p, Initial residual = 0.00029181845, Final residual = 1.4264135e-05, No Iterations 12
DICPCG:  Solving for p, Initial residual = 8.8508043e-05, Final residual = 4.0189591e-06, No Iterations 16
time step continuity errors : sum local = 4.0551069e-12, global = 1.358612e-12, cumulative = -3.3559138e-08
DICPCG:  Solving for p, Initial residual = 3.3465953e-05, Final residual = 1.6490356e-06, No Iterations 151
DICPCG:  Solving for p, Initial residual = 3.6046692e-05, Final residual = 1.5419241e-06, No Iterations 6
DICPCG:  Solving for p, Initial residual = 8.7287105e-06, Final residual = 8.8696741e-07, No Iterations 4
time step continuity errors : sum local = 8.9487083e-13, global = -1.4913638e-15, cumulative = -3.3559139e-08
ExecutionTime = 178.33 s  ClockTime = 190 s

Time = 19.1

Courant Number mean: 0.00047004103 max: 0.094034205
smoothSolver:  Solving for Ux, Initial residual = 0.00021551984, Final residual = 5.0389091e-09, No Iterations 1
smoothSolver:  Solving for Uy, Initial residual = 0.00027490141, Final residual = 6.2388846e-09, No Iterations 1
smoothSolver:  Solving for Uz, Initial residual = 0.00031570873, Final residual = 6.3421053e-09, No Iterations 1
DICPCG:  Solving for p, Initial residual = 0.0024335908, Final residual = 9.43564e-05, No Iterations 2
DICPCG:  Solving for p, Initial residual = 0.00031869978, Final residual = 1.3327681e-05, No Iterations 16
DICPCG:  Solving for p, Initial residual = 0.00010358979, Final residual = 4.9013204e-06, No Iterations 27
time step continuity errors : sum local = 4.9319096e-12, global = 7.7951693e-13, cumulative = -3.355836e-08
DICPCG:  Solving for p, Initial residual = 4.5756945e-05, Final residual = 2.2164368e-06, No Iterations 15
DICPCG:  Solving for p, Initial residual = 1.5045871e-05, Final residual = 9.0500772e-07, No Iterations 150
DICPCG:  Solving for p, Initial residual = 3.1337232e-05, Final residual = 8.9575489e-07, No Iterations 8
time step continuity errors : sum local = 9.0129849e-13, global = -5.258163e-14, cumulative = -3.3558412e-08
ExecutionTime = 179.53 s  ClockTime = 191 s

Time = 19.2

Courant Number mean: 0.00047004728 max: 0.094061144
smoothSolver:  Solving for Ux, Initial residual = 0.00021489979, Final residual = 5.0077276e-09, No Iterations 1
smoothSolver:  Solving for Uy, Initial residual = 0.0002741838, Final residual = 6.2182498e-09, No Iterations 1
smoothSolver:  Solving for Uz, Initial residual = 0.0003150974, Final residual = 6.3189627e-09, No Iterations 1
DICPCG:  Solving for p, Initial residual = 0.0023963612, Final residual = 7.7181825e-05, No Iterations 2
DICPCG:  Solving for p, Initial residual = 0.00030943139, Final residual = 1.4863416e-05, No Iterations 15
DICPCG:  Solving for p, Initial residual = 0.00010285375, Final residual = 4.829186e-06, No Iterations 142
time step continuity errors : sum local = 4.8456456e-12, global = 7.5242045e-15, cumulative = -3.3558405e-08
DICPCG:  Solving for p, Initial residual = 5.6147097e-05, Final residual = 2.684868e-06, No Iterations 9
DICPCG:  Solving for p, Initial residual = 1.6173762e-05, Final residual = 9.9270007e-07, No Iterations 31
DICPCG:  Solving for p, Initial residual = 1.0249678e-05, Final residual = 8.4639951e-07, No Iterations 4
time step continuity errors : sum local = 8.4921375e-13, global = -1.3253805e-14, cumulative = -3.3558418e-08
ExecutionTime = 180.4 s  ClockTime = 192 s

Time = 19.3

Courant Number mean: 0.00047005357 max: 0.094087457
smoothSolver:  Solving for Ux, Initial residual = 0.00021430011, Final residual = 4.9729748e-09, No Iterations 1
smoothSolver:  Solving for Uy, Initial residual = 0.00027347959, Final residual = 6.1816211e-09, No Iterations 1
smoothSolver:  Solving for Uz, Initial residual = 0.00031444825, Final residual = 6.2821258e-09, No Iterations 1
DICPCG:  Solving for p, Initial residual = 0.0023506754, Final residual = 6.3246152e-05, No Iterations 3
DICPCG:  Solving for p, Initial residual = 0.00032295001, Final residual = 1.6005277e-05, No Iterations 14
DICPCG:  Solving for p, Initial residual = 9.876524e-05, Final residual = 4.7718446e-06, No Iterations 11
time step continuity errors : sum local = 4.7756792e-12, global = 1.4965167e-12, cumulative = -3.3556921e-08
DICPCG:  Solving for p, Initial residual = 3.4356565e-05, Final residual = 1.6310019e-06, No Iterations 162
DICPCG:  Solving for p, Initial residual = 4.1664423e-05, Final residual = 2.0572899e-06, No Iterations 5
DICPCG:  Solving for p, Initial residual = 1.0148638e-05, Final residual = 9.695306e-07, No Iterations 3
time step continuity errors : sum local = 9.7022208e-13, global = 4.8603721e-15, cumulative = -3.3556917e-08
ExecutionTime = 181.47 s  ClockTime = 193 s

Time = 19.4

Courant Number mean: 0.00047006009 max: 0.094113158
smoothSolver:  Solving for Ux, Initial residual = 0.00021363896, Final residual = 4.9404616e-09, No Iterations 1
smoothSolver:  Solving for Uy, Initial residual = 0.00027283922, Final residual = 6.1453612e-09, No Iterations 1
smoothSolver:  Solving for Uz, Initial residual = 0.00031373959, Final residual = 6.2494629e-09, No Iterations 1
DICPCG:  Solving for p, Initial residual = 0.0023197566, Final residual = 8.1863276e-05, No Iterations 2
DICPCG:  Solving for p, Initial residual = 0.0003090836, Final residual = 1.3540021e-05, No Iterations 15
DICPCG:  Solving for p, Initial residual = 0.00010007254, Final residual = 4.9954007e-06, No Iterations 21
time step continuity errors : sum local = 4.9861233e-12, global = 1.4883905e-12, cumulative = -3.3555428e-08
DICPCG:  Solving for p, Initial residual = 3.9755423e-05, Final residual = 1.8670138e-06, No Iterations 141
DICPCG:  Solving for p, Initial residual = 4.148621e-05, Final residual = 1.5455184e-06, No Iterations 6
DICPCG:  Solving for p, Initial residual = 9.9182158e-06, Final residual = 9.8454733e-07, No Iterations 3
time step continuity errors : sum local = 9.8263257e-13, global = -6.403942e-15, cumulative = -3.3555435e-08
ExecutionTime = 182.49 s  ClockTime = 194 s

Time = 19.5

Courant Number mean: 0.00047006672 max: 0.09413832
smoothSolver:  Solving for Ux, Initial residual = 0.00021298986, Final residual = 4.9053513e-09, No Iterations 1
smoothSolver:  Solving for Uy, Initial residual = 0.00027208226, Final residual = 6.122415e-09, No Iterations 1
smoothSolver:  Solving for Uz, Initial residual = 0.00031303154, Final residual = 6.2243022e-09, No Iterations 1
DICPCG:  Solving for p, Initial residual = 0.0023652915, Final residual = 6.5287334e-05, No Iterations 3
DICPCG:  Solving for p, Initial residual = 0.0003438068, Final residual = 1.700835e-05, No Iterations 15
DICPCG:  Solving for p, Initial residual = 0.00011353462, Final residual = 5.3468672e-06, No Iterations 11
time step continuity errors : sum local = 5.3229182e-12, global = 1.2866187e-12, cumulative = -3.3554148e-08
DICPCG:  Solving for p, Initial residual = 4.0145984e-05, Final residual = 1.9136484e-06, No Iterations 124
DICPCG:  Solving for p, Initial residual = 4.1326786e-05, Final residual = 1.5704826e-06, No Iterations 6
DICPCG:  Solving for p, Initial residual = 1.0045121e-05, Final residual = 8.9756563e-07, No Iterations 4
time step continuity errors : sum local = 8.9346411e-13, global = -1.3517267e-14, cumulative = -3.3554161e-08
ExecutionTime = 183.54 s  ClockTime = 195 s

Time = 19.6

Courant Number mean: 0.00047007336 max: 0.094162989
smoothSolver:  Solving for Ux, Initial residual = 0.00021224573, Final residual = 4.8725807e-09, No Iterations 1
smoothSolver:  Solving for Uy, Initial residual = 0.00027138402, Final residual = 6.1010418e-09, No Iterations 1
smoothSolver:  Solving for Uz, Initial residual = 0.00031218611, Final residual = 6.2000536e-09, No Iterations 1
DICPCG:  Solving for p, Initial residual = 0.0023316163, Final residual = 6.8759545e-05, No Iterations 3
DICPCG:  Solving for p, Initial residual = 0.00032514753, Final residual = 1.417308e-05, No Iterations 16
DICPCG:  Solving for p, Initial residual = 0.00010924263, Final residual = 5.2285955e-06, No Iterations 10
time step continuity errors : sum local = 5.1904598e-12, global = 1.0633394e-12, cumulative = -3.3553098e-08
DICPCG:  Solving for p, Initial residual = 3.7228641e-05, Final residual = 1.7267808e-06, No Iterations 146
DICPCG:  Solving for p, Initial residual = 3.7756331e-05, Final residual = 1.8461291e-06, No Iterations 5
DICPCG:  Solving for p, Initial residual = 9.0488645e-06, Final residual = 8.715722e-07, No Iterations 3
time step continuity errors : sum local = 8.6515992e-13, global = 6.0971863e-15, cumulative = -3.3553092e-08
ExecutionTime = 184.45 s  ClockTime = 196 s

Time = 19.7

Courant Number mean: 0.00047008009 max: 0.094187169
smoothSolver:  Solving for Ux, Initial residual = 0.00021166706, Final residual = 4.8463765e-09, No Iterations 1
smoothSolver:  Solving for Uy, Initial residual = 0.00027060383, Final residual = 6.0728315e-09, No Iterations 1
smoothSolver:  Solving for Uz, Initial residual = 0.00031153963, Final residual = 6.165105e-09, No Iterations 1
DICPCG:  Solving for p, Initial residual = 0.0023157442, Final residual = 0.00011074002, No Iterations 2
DICPCG:  Solving for p, Initial residual = 0.00033039723, Final residual = 1.5459541e-05, No Iterations 8
DICPCG:  Solving for p, Initial residual = 9.6507534e-05, Final residual = 4.5518387e-06, No Iterations 156
time step continuity errors : sum local = 4.5069337e-12, global = 7.1643065e-15, cumulative = -3.3553085e-08
DICPCG:  Solving for p, Initial residual = 5.2083487e-05, Final residual = 2.524626e-06, No Iterations 7
DICPCG:  Solving for p, Initial residual = 1.4437771e-05, Final residual = 9.8593551e-07, No Iterations 19
DICPCG:  Solving for p, Initial residual = 7.3559309e-06, Final residual = 9.0379303e-07, No Iterations 3
time step continuity errors : sum local = 8.9480552e-13, global = -1.925287e-14, cumulative = -3.3553104e-08
ExecutionTime = 185.36 s  ClockTime = 197 s

Time = 19.8

Courant Number mean: 0.00047008714 max: 0.094210872
smoothSolver:  Solving for Ux, Initial residual = 0.0002109874, Final residual = 4.8240224e-09, No Iterations 1
smoothSolver:  Solving for Uy, Initial residual = 0.0002698403, Final residual = 6.03466e-09, No Iterations 1
smoothSolver:  Solving for Uz, Initial residual = 0.00031080998, Final residual = 6.1414995e-09, No Iterations 1
DICPCG:  Solving for p, Initial residual = 0.0022666886, Final residual = 7.0169621e-05, No Iterations 3
DICPCG:  Solving for p, Initial residual = 0.00032011496, Final residual = 1.5858888e-05, No Iterations 15
DICPCG:  Solving for p, Initial residual = 0.00010948007, Final residual = 5.3965668e-06, No Iterations 10
time step continuity errors : sum local = 5.3305637e-12, global = 7.8840739e-13, cumulative = -3.3552316e-08
DICPCG:  Solving for p, Initial residual = 3.7273749e-05, Final residual = 1.8514775e-06, No Iterations 155
DICPCG:  Solving for p, Initial residual = 3.4064768e-05, Final residual = 1.5791759e-06, No Iterations 5
DICPCG:  Solving for p, Initial residual = 8.2613422e-06, Final residual = 8.0348093e-07, No Iterations 3
time step continuity errors : sum local = 7.9362241e-13, global = 5.7253702e-15, cumulative = -3.355231e-08
ExecutionTime = 186.32 s  ClockTime = 198 s

Time = 19.9

Courant Number mean: 0.00047009424 max: 0.094234079
smoothSolver:  Solving for Ux, Initial residual = 0.00021054014, Final residual = 4.7983354e-09, No Iterations 1
smoothSolver:  Solving for Uy, Initial residual = 0.00026918284, Final residual = 6.0065149e-09, No Iterations 1
smoothSolver:  Solving for Uz, Initial residual = 0.00031027002, Final residual = 6.1143196e-09, No Iterations 1
DICPCG:  Solving for p, Initial residual = 0.0022234245, Final residual = 5.938508e-05, No Iterations 3
DICPCG:  Solving for p, Initial residual = 0.00029431545, Final residual = 1.3675022e-05, No Iterations 12
DICPCG:  Solving for p, Initial residual = 9.0540457e-05, Final residual = 4.3911257e-06, No Iterations 26
time step continuity errors : sum local = 4.3272629e-12, global = 9.6803288e-13, cumulative = -3.3551342e-08
DICPCG:  Solving for p, Initial residual = 4.43941e-05, Final residual = 2.197781e-06, No Iterations 96
DICPCG:  Solving for p, Initial residual = 3.6298032e-05, Final residual = 1.4181107e-06, No Iterations 6
DICPCG:  Solving for p, Initial residual = 8.7193066e-06, Final residual = 9.4363659e-07, No Iterations 4
time step continuity errors : sum local = 9.2984354e-13, global = 3.1166377e-15, cumulative = -3.3551339e-08
ExecutionTime = 187.21 s  ClockTime = 199 s

Time = 20

Courant Number mean: 0.0004701013 max: 0.094256792
smoothSolver:  Solving for Ux, Initial residual = 0.00020987536, Final residual = 4.7701267e-09, No Iterations 1
smoothSolver:  Solving for Uy, Initial residual = 0.0002684763, Final residual = 5.9804748e-09, No Iterations 1
smoothSolver:  Solving for Uz, Initial residual = 0.00030950311, Final residual = 6.0853966e-09, No Iterations 1
DICPCG:  Solving for p, Initial residual = 0.0022807745, Final residual = 6.4780398e-05, No Iterations 3
DICPCG:  Solving for p, Initial residual = 0.00032023767, Final residual = 1.5916717e-05, No Iterations 16
DICPCG:  Solving for p, Initial residual = 0.00011331601, Final residual = 5.5717817e-06, No Iterations 10
time step continuity errors : sum local = 5.4757618e-12, global = 9.1969088e-13, cumulative = -3.3550419e-08
DICPCG:  Solving for p, Initial residual = 3.9538744e-05, Final residual = 1.9058402e-06, No Iterations 159
DICPCG:  Solving for p, Initial residual = 3.6326978e-05, Final residual = 1.3651738e-06, No Iterations 6
DICPCG:  Solving for p, Initial residual = 8.8391517e-06, Final residual = 9.4813809e-07, No Iterations 3
time step continuity errors : sum local = 9.3174719e-13, global = -4.3198973e-15, cumulative = -3.3550423e-08
ExecutionTime = 188.52 s  ClockTime = 200 s

End

Finalising parallel run
