/*---------------------------------------------------------------------------*\
  =========                 |
  \\      /  F ield         | OpenFOAM: The Open Source CFD Toolbox
   \\    /   O peration     | Website:  https://openfoam.org
    \\  /    A nd           | Version:  8
     \\/     M anipulation  |
\*---------------------------------------------------------------------------*/
Build  : 8-1c9b5879390b
Exec   : checkMesh
Date   : Dec 30 2021
Time   : 13:17:10
Host   : "pop-os"
PID    : 7462
I/O    : uncollated
Case   : /home/naimishbalaji/Desktop/Mini_Project/CFD-For-Ventilation-Analysis/simulations/icofoam_cases/1_inlet_1_outlet/case
nProcs : 1
sigFpe : Enabling floating point exception trapping (FOAM_SIGFPE).
fileModificationChecking : Monitoring run-time modified files using timeStampMaster (fileModificationSkew 10)
allowSystemOperations : Allowing user-supplied system call operations

// * * * * * * * * * * * * * * * * * * * * * * * * * * * * * * * * * * * * * //
Create time

Create polyMesh for time = 0

Time = 0

Mesh stats
    points:           163437
    faces:            430041
    internal faces:   403863
    cells:            138984
    faces per cell:   6
    boundary patches: 4
    point zones:      0
    face zones:       0
    cell zones:       1

Overall number of cells of each type:
    hexahedra:     138984
    prisms:        0
    wedges:        0
    pyramids:      0
    tet wedges:    0
    tetrahedra:    0
    polyhedra:     0

Checking topology...
    Boundary definition OK.
    Cell to face addressing OK.
    Point usage OK.
    Upper triangular ordering OK.
    Face vertices OK.
    Number of regions: 1 (OK).

Checking patch topology for multiply connected surfaces...
    Patch               Faces    Points   Surface topology                  
    wall                21876    22167    ok (non-closed singly connected)  
    inlet               24       31       ok (non-closed singly connected)  
    surfaces            4254     4575     ok (non-closed singly connected)  
    outlet              24       31       ok (non-closed singly connected)  

Checking geometry...
    Overall domain bounding box (-1524 0 0) (19812 12192 3048)
    Mesh has 3 geometric (non-empty/wedge) directions (1 1 1)
    Mesh has 3 solution (non-empty) directions (1 1 1)
    Boundary openness (-1.0993591e-17 3.6934561e-18 2.0067236e-16) OK.
    Max cell openness = 2.2226674e-16 OK.
    Max aspect ratio = 8.1688862 OK.
    Minimum face area = 2021.004. Maximum face area = 110721.12.  Face area magnitudes OK.
    Min volume = 412215.58. Max volume = 16054388.  Total volume = 6.466144e+11.  Cell volumes OK.
    Mesh non-orthogonality Max: 75.513386 average: 25.95373
   *Number of severely non-orthogonal (> 70 degrees) faces: 857.
    Non-orthogonality check OK.
  <<Writing 857 non-orthogonal faces to set nonOrthoFaces
    Face pyramids OK.
    Max skewness = 1.1057848 OK.
    Coupled point location match (average 0) OK.

Mesh OK.

End

