/*---------------------------------------------------------------------------*\
  =========                 |
  \\      /  F ield         | OpenFOAM: The Open Source CFD Toolbox
   \\    /   O peration     | Website:  https://openfoam.org
    \\  /    A nd           | Version:  8
     \\/     M anipulation  |
\*---------------------------------------------------------------------------*/
Build  : 8-1c9b5879390b
Exec   : decomposePar
Date   : Dec 30 2021
Time   : 13:17:15
Host   : "pop-os"
PID    : 7464
I/O    : uncollated
Case   : /home/naimishbalaji/Desktop/Mini_Project/CFD-For-Ventilation-Analysis/simulations/icofoam_cases/1_inlet_1_outlet/case
nProcs : 1
sigFpe : Enabling floating point exception trapping (FOAM_SIGFPE).
fileModificationChecking : Monitoring run-time modified files using timeStampMaster (fileModificationSkew 10)
allowSystemOperations : Allowing user-supplied system call operations

// * * * * * * * * * * * * * * * * * * * * * * * * * * * * * * * * * * * * * //
Create time



Decomposing mesh region0

Create mesh

Calculating distribution of cells
Selecting decompositionMethod scotch

Finished decomposition in 0.23 s

Calculating original mesh data

Distributing cells to processors

Distributing faces to processors

Distributing points to processors

Constructing processor meshes

Processor 0
    Number of cells = 69492
    Number of faces shared with processor 1 = 954
    Number of processor patches = 1
    Number of processor faces = 954
    Number of boundary faces = 13302

Processor 1
    Number of cells = 69492
    Number of faces shared with processor 0 = 954
    Number of processor patches = 1
    Number of processor faces = 954
    Number of boundary faces = 12876

Number of processor faces = 954
Max number of cells = 69492 (0% above average 69492)
Max number of processor patches = 1 (0% above average 1)
Max number of faces between processors = 954 (0% above average 954)

Time = 0

Processor 0: field transfer
Processor 1: field transfer

End

