/*---------------------------------------------------------------------------*\
  =========                 |
  \\      /  F ield         | OpenFOAM: The Open Source CFD Toolbox
   \\    /   O peration     | Website:  https://openfoam.org
    \\  /    A nd           | Version:  8
     \\/     M anipulation  |
\*---------------------------------------------------------------------------*/
Build  : 8-1c9b5879390b
Exec   : gmshToFoam one_inlet.msh
Date   : Dec 30 2021
Time   : 13:17:06
Host   : "pop-os"
PID    : 7461
I/O    : uncollated
Case   : /home/naimishbalaji/Desktop/Mini_Project/CFD-For-Ventilation-Analysis/simulations/icofoam_cases/1_inlet_1_outlet/case
nProcs : 1
sigFpe : Enabling floating point exception trapping (FOAM_SIGFPE).
fileModificationChecking : Monitoring run-time modified files using timeStampMaster (fileModificationSkew 10)
allowSystemOperations : Allowing user-supplied system call operations

// * * * * * * * * * * * * * * * * * * * * * * * * * * * * * * * * * * * * * //
Create time

Starting to read mesh format at line 2
Read format version 2.2  ascii 0

Starting to read physical names at line 5
Physical names:5
    Surface 281	inlet
    Surface 282	outlet
    Surface 283	wall
    Surface 284	surfaces
    Volume 280	flow_field

Starting to read points at line 13
Vertices to be read:163437
Vertices read:163437

Starting to read cells at line 163453
Cells to be read:165162

Mapping region 283 to Foam patch 0
Mapping region 281 to Foam patch 1
Mapping region 284 to Foam patch 2
Mapping region 282 to Foam patch 3
Mapping region 280 to Foam cellZone 0
Cells:
    total:138984
    hex  :138984
    prism:0
    pyr  :0
    tet  :0

CellZones:
Zone	Size
    0	138984

Skipping tag  at line 328618
Patch 0 gets name wall
Patch 1 gets name inlet
Patch 2 gets name surfaces
Patch 3 gets name outlet

--> FOAM Warning : 
    From function Foam::polyMesh::polyMesh(const Foam::IOobject&, Foam::pointField&&, const cellShapeList&, const faceListList&, const wordList&, const wordList&, const Foam::word&, const Foam::word&, const wordList&, bool)
    in file meshes/polyMesh/polyMeshFromShapeMesh.C at line 595
    Found 26178 undefined faces in mesh; adding to default patch.
Finding faces of patch 0
Finding faces of patch 1
Finding faces of patch 2
Finding faces of patch 3

FaceZones:
Zone	Size

Writing zone 0 to cellZone flow_field and cellSet
End

