/*---------------------------------------------------------------------------*\
  =========                 |
  \\      /  F ield         | OpenFOAM: The Open Source CFD Toolbox
   \\    /   O peration     | Website:  https://openfoam.org
    \\  /    A nd           | Version:  8
     \\/     M anipulation  |
\*---------------------------------------------------------------------------*/
Build  : 8-1c9b5879390b
Exec   : icoFoam -parallel
Date   : Dec 30 2021
Time   : 13:17:21
Host   : "pop-os"
PID    : 7470
I/O    : uncollated
Case   : /home/naimishbalaji/Desktop/Mini_Project/CFD-For-Ventilation-Analysis/simulations/icofoam_cases/1_inlet_1_outlet/case
nProcs : 2
Slaves : 1("pop-os.7471")
Pstream initialized with:
    floatTransfer      : 0
    nProcsSimpleSum    : 0
    commsType          : nonBlocking
    polling iterations : 0
sigFpe : Enabling floating point exception trapping (FOAM_SIGFPE).
fileModificationChecking : Monitoring run-time modified files using timeStampMaster (fileModificationSkew 10)
allowSystemOperations : Allowing user-supplied system call operations

// * * * * * * * * * * * * * * * * * * * * * * * * * * * * * * * * * * * * * //
Create time

Create mesh for time = 0

Reading transportProperties

Reading field p

Reading field U

Reading/calculating face flux field phi


Starting time loop

Time = 0.1

Courant Number mean: 5.8619852e-07 max: 0.01388161
smoothSolver:  Solving for Ux, Initial residual = 1, Final residual = 7.8825637e-17, No Iterations 1
smoothSolver:  Solving for Uy, Initial residual = 0, Final residual = 0, No Iterations 0
smoothSolver:  Solving for Uz, Initial residual = 0, Final residual = 0, No Iterations 0
DICPCG:  Solving for p, Initial residual = 1, Final residual = 0.04508284, No Iterations 243
DICPCG:  Solving for p, Initial residual = 0.45760294, Final residual = 0.019537573, No Iterations 5
DICPCG:  Solving for p, Initial residual = 0.070539428, Final residual = 0.0031539739, No Iterations 9
time step continuity errors : sum local = 8.7860801e-07, global = -4.7333298e-09, cumulative = -4.7333298e-09
DICPCG:  Solving for p, Initial residual = 0.016014508, Final residual = 0.00070330779, No Iterations 22
DICPCG:  Solving for p, Initial residual = 0.0061385966, Final residual = 0.00028138562, No Iterations 19
DICPCG:  Solving for p, Initial residual = 0.0023207164, Final residual = 9.7812416e-07, No Iterations 249
time step continuity errors : sum local = 2.7401531e-10, global = -1.2288206e-13, cumulative = -4.7334527e-09
ExecutionTime = 3.65 s  ClockTime = 4 s

Time = 0.2

Courant Number mean: 0.000327155 max: 0.054674546
smoothSolver:  Solving for Ux, Initial residual = 0.53878996, Final residual = 9.8306956e-06, No Iterations 1
smoothSolver:  Solving for Uy, Initial residual = 0.35993454, Final residual = 2.7238071e-06, No Iterations 1
smoothSolver:  Solving for Uz, Initial residual = 0.33285581, Final residual = 4.8081798e-06, No Iterations 1
DICPCG:  Solving for p, Initial residual = 0.087128162, Final residual = 0.0041993095, No Iterations 225
DICPCG:  Solving for p, Initial residual = 0.62257205, Final residual = 0.026621692, No Iterations 5
DICPCG:  Solving for p, Initial residual = 0.30736612, Final residual = 0.013964446, No Iterations 14
time step continuity errors : sum local = 9.0726212e-07, global = -3.7013224e-08, cumulative = -4.1746677e-08
DICPCG:  Solving for p, Initial residual = 0.094682095, Final residual = 0.0044638954, No Iterations 24
DICPCG:  Solving for p, Initial residual = 0.040585813, Final residual = 0.0020268841, No Iterations 24
DICPCG:  Solving for p, Initial residual = 0.01621576, Final residual = 9.7334914e-07, No Iterations 265
time step continuity errors : sum local = 5.0250391e-11, global = 2.9879413e-14, cumulative = -4.1746647e-08
ExecutionTime = 6.93 s  ClockTime = 7 s

Time = 0.3

Courant Number mean: 0.00033092744 max: 0.055067223
smoothSolver:  Solving for Ux, Initial residual = 0.019080251, Final residual = 3.6603078e-07, No Iterations 1
smoothSolver:  Solving for Uy, Initial residual = 0.037900233, Final residual = 5.4830291e-07, No Iterations 1
smoothSolver:  Solving for Uz, Initial residual = 0.062860906, Final residual = 1.3141479e-06, No Iterations 1
DICPCG:  Solving for p, Initial residual = 0.41650556, Final residual = 0.019294552, No Iterations 3
DICPCG:  Solving for p, Initial residual = 0.1847955, Final residual = 0.0090437559, No Iterations 6
DICPCG:  Solving for p, Initial residual = 0.053134675, Final residual = 0.0025635514, No Iterations 20
time step continuity errors : sum local = 5.5945094e-08, global = 6.2095983e-10, cumulative = -4.1125687e-08
DICPCG:  Solving for p, Initial residual = 0.019647824, Final residual = 0.00090851505, No Iterations 16
DICPCG:  Solving for p, Initial residual = 0.0074446693, Final residual = 0.0003570097, No Iterations 46
DICPCG:  Solving for p, Initial residual = 0.0043687757, Final residual = 9.3085328e-07, No Iterations 243
time step continuity errors : sum local = 2.0088061e-11, global = -1.3690014e-15, cumulative = -4.1125688e-08
ExecutionTime = 9.07 s  ClockTime = 9 s

Time = 0.4

Courant Number mean: 0.00033123116 max: 0.055075855
smoothSolver:  Solving for Ux, Initial residual = 0.0072038136, Final residual = 1.706655e-07, No Iterations 1
smoothSolver:  Solving for Uy, Initial residual = 0.013730858, Final residual = 2.6380155e-07, No Iterations 1
smoothSolver:  Solving for Uz, Initial residual = 0.022098802, Final residual = 4.6518798e-07, No Iterations 1
DICPCG:  Solving for p, Initial residual = 0.18410391, Final residual = 0.0059887216, No Iterations 3
DICPCG:  Solving for p, Initial residual = 0.046874769, Final residual = 0.0023114253, No Iterations 6
DICPCG:  Solving for p, Initial residual = 0.011695276, Final residual = 0.00048834899, No Iterations 17
time step continuity errors : sum local = 7.3777989e-09, global = 7.9563411e-11, cumulative = -4.1046125e-08
DICPCG:  Solving for p, Initial residual = 0.003968575, Final residual = 0.00018645262, No Iterations 23
DICPCG:  Solving for p, Initial residual = 0.0015529522, Final residual = 7.6919818e-05, No Iterations 43
DICPCG:  Solving for p, Initial residual = 0.0012404085, Final residual = 9.603186e-07, No Iterations 231
time step continuity errors : sum local = 1.4470786e-11, global = 2.2713272e-15, cumulative = -4.1046123e-08
ExecutionTime = 11.16 s  ClockTime = 11 s

Time = 0.5

Courant Number mean: 0.00033130055 max: 0.055060108
smoothSolver:  Solving for Ux, Initial residual = 0.004870989, Final residual = 1.1708244e-07, No Iterations 1
smoothSolver:  Solving for Uy, Initial residual = 0.0091601372, Final residual = 1.8503329e-07, No Iterations 1
smoothSolver:  Solving for Uz, Initial residual = 0.014760391, Final residual = 3.2932024e-07, No Iterations 1
DICPCG:  Solving for p, Initial residual = 0.10858633, Final residual = 0.0035767948, No Iterations 3
DICPCG:  Solving for p, Initial residual = 0.023185317, Final residual = 0.00094333483, No Iterations 7
DICPCG:  Solving for p, Initial residual = 0.0052309862, Final residual = 0.00026019554, No Iterations 20
time step continuity errors : sum local = 3.1776939e-09, global = -5.192651e-10, cumulative = -4.1565388e-08
DICPCG:  Solving for p, Initial residual = 0.0019390827, Final residual = 9.058239e-05, No Iterations 185
DICPCG:  Solving for p, Initial residual = 0.0023540651, Final residual = 9.478385e-05, No Iterations 5
DICPCG:  Solving for p, Initial residual = 0.00052705032, Final residual = 9.2994992e-07, No Iterations 93
time step continuity errors : sum local = 1.1401048e-11, global = 6.3691471e-13, cumulative = -4.1564751e-08
ExecutionTime = 13.55 s  ClockTime = 14 s

Time = 0.6

Courant Number mean: 0.00033134311 max: 0.05504978
smoothSolver:  Solving for Ux, Initial residual = 0.0038417631, Final residual = 9.383557e-08, No Iterations 1
smoothSolver:  Solving for Uy, Initial residual = 0.0072318847, Final residual = 1.4987882e-07, No Iterations 1
smoothSolver:  Solving for Uz, Initial residual = 0.011664521, Final residual = 2.7275822e-07, No Iterations 1
DICPCG:  Solving for p, Initial residual = 0.082635123, Final residual = 0.0035488529, No Iterations 2
DICPCG:  Solving for p, Initial residual = 0.016448348, Final residual = 0.00074674032, No Iterations 7
DICPCG:  Solving for p, Initial residual = 0.0036795072, Final residual = 0.00018243112, No Iterations 20
time step continuity errors : sum local = 1.9045368e-09, global = -2.7644294e-10, cumulative = -4.1841194e-08
DICPCG:  Solving for p, Initial residual = 0.0012871854, Final residual = 6.0269517e-05, No Iterations 185
DICPCG:  Solving for p, Initial residual = 0.0016298778, Final residual = 7.4936949e-05, No Iterations 4
DICPCG:  Solving for p, Initial residual = 0.00035095994, Final residual = 9.241664e-07, No Iterations 89
time step continuity errors : sum local = 9.6717738e-12, global = 4.0610492e-13, cumulative = -4.1840788e-08
ExecutionTime = 15.56 s  ClockTime = 16 s

Time = 0.7

Courant Number mean: 0.00033136871 max: 0.055046917
smoothSolver:  Solving for Ux, Initial residual = 0.0032014349, Final residual = 7.9782027e-08, No Iterations 1
smoothSolver:  Solving for Uy, Initial residual = 0.0060227908, Final residual = 1.2736907e-07, No Iterations 1
smoothSolver:  Solving for Uz, Initial residual = 0.0097460394, Final residual = 2.3661317e-07, No Iterations 1
DICPCG:  Solving for p, Initial residual = 0.068186484, Final residual = 0.0028063107, No Iterations 2
DICPCG:  Solving for p, Initial residual = 0.012977173, Final residual = 0.00057284237, No Iterations 7
DICPCG:  Solving for p, Initial residual = 0.0028004046, Final residual = 0.00013220299, No Iterations 19
time step continuity errors : sum local = 1.2113935e-09, global = -1.6988658e-10, cumulative = -4.2010674e-08
DICPCG:  Solving for p, Initial residual = 0.00095237568, Final residual = 4.6249334e-05, No Iterations 184
DICPCG:  Solving for p, Initial residual = 0.001238878, Final residual = 5.6607418e-05, No Iterations 4
DICPCG:  Solving for p, Initial residual = 0.00026653385, Final residual = 9.7103546e-07, No Iterations 86
time step continuity errors : sum local = 8.9129333e-12, global = 3.5016508e-13, cumulative = -4.2010324e-08
ExecutionTime = 17.57 s  ClockTime = 18 s

Time = 0.8

Courant Number mean: 0.00033138272 max: 0.055048133
smoothSolver:  Solving for Ux, Initial residual = 0.0027530201, Final residual = 7.0151848e-08, No Iterations 1
smoothSolver:  Solving for Uy, Initial residual = 0.0051775854, Final residual = 1.1284025e-07, No Iterations 1
smoothSolver:  Solving for Uz, Initial residual = 0.0083961312, Final residual = 2.1156014e-07, No Iterations 1
DICPCG:  Solving for p, Initial residual = 0.05825606, Final residual = 0.0021722396, No Iterations 2
DICPCG:  Solving for p, Initial residual = 0.0105701, Final residual = 0.0004316985, No Iterations 7
DICPCG:  Solving for p, Initial residual = 0.00220584, Final residual = 0.00010131353, No Iterations 20
time step continuity errors : sum local = 8.3002778e-10, global = -9.5809704e-11, cumulative = -4.2106134e-08
DICPCG:  Solving for p, Initial residual = 0.00075231897, Final residual = 3.4572601e-05, No Iterations 184
DICPCG:  Solving for p, Initial residual = 0.00089245937, Final residual = 3.9973213e-05, No Iterations 4
DICPCG:  Solving for p, Initial residual = 0.00019131943, Final residual = 9.3912239e-07, No Iterations 64
time step continuity errors : sum local = 7.7016337e-12, global = 1.5451424e-14, cumulative = -4.2106118e-08
ExecutionTime = 19.44 s  ClockTime = 20 s

Time = 0.9

Courant Number mean: 0.00033138992 max: 0.055052734
smoothSolver:  Solving for Ux, Initial residual = 0.0024195615, Final residual = 6.2990306e-08, No Iterations 1
smoothSolver:  Solving for Uy, Initial residual = 0.0045514177, Final residual = 1.0222129e-07, No Iterations 1
smoothSolver:  Solving for Uz, Initial residual = 0.007394504, Final residual = 1.9297211e-07, No Iterations 1
DICPCG:  Solving for p, Initial residual = 0.051107973, Final residual = 0.0018102003, No Iterations 2
DICPCG:  Solving for p, Initial residual = 0.0089724325, Final residual = 0.00040851922, No Iterations 6
DICPCG:  Solving for p, Initial residual = 0.0018943956, Final residual = 9.0084658e-05, No Iterations 21
time step continuity errors : sum local = 6.686716e-10, global = -5.2462509e-11, cumulative = -4.2158581e-08
DICPCG:  Solving for p, Initial residual = 0.00064418528, Final residual = 3.0211801e-05, No Iterations 74
DICPCG:  Solving for p, Initial residual = 0.00051491532, Final residual = 2.5438027e-05, No Iterations 6
DICPCG:  Solving for p, Initial residual = 0.00012463424, Final residual = 9.9892978e-07, No Iterations 213
time step continuity errors : sum local = 7.4132145e-12, global = -2.3795466e-15, cumulative = -4.2158583e-08
ExecutionTime = 21.54 s  ClockTime = 22 s

Time = 1

Courant Number mean: 0.00033139116 max: 0.055059864
smoothSolver:  Solving for Ux, Initial residual = 0.0021606633, Final residual = 5.7505778e-08, No Iterations 1
smoothSolver:  Solving for Uy, Initial residual = 0.0040656798, Final residual = 9.3817549e-08, No Iterations 1
smoothSolver:  Solving for Uz, Initial residual = 0.0066097878, Final residual = 1.7840514e-07, No Iterations 1
DICPCG:  Solving for p, Initial residual = 0.045698195, Final residual = 0.0016500826, No Iterations 2
DICPCG:  Solving for p, Initial residual = 0.0078695702, Final residual = 0.00034320878, No Iterations 6
DICPCG:  Solving for p, Initial residual = 0.0016407436, Final residual = 7.9259301e-05, No Iterations 20
time step continuity errors : sum local = 5.3833442e-10, global = -2.2178684e-11, cumulative = -4.2180762e-08
DICPCG:  Solving for p, Initial residual = 0.00055185029, Final residual = 2.6617723e-05, No Iterations 57
DICPCG:  Solving for p, Initial residual = 0.00039630848, Final residual = 1.9335625e-05, No Iterations 7
DICPCG:  Solving for p, Initial residual = 9.9274678e-05, Final residual = 9.0911897e-07, No Iterations 193
time step continuity errors : sum local = 6.1732059e-12, global = 8.3856874e-15, cumulative = -4.2180754e-08
ExecutionTime = 23.77 s  ClockTime = 24 s

Time = 1.1

Courant Number mean: 0.00033138785 max: 0.055069802
smoothSolver:  Solving for Ux, Initial residual = 0.0019528492, Final residual = 5.2732116e-08, No Iterations 1
smoothSolver:  Solving for Uy, Initial residual = 0.0036775302, Final residual = 8.667423e-08, No Iterations 1
smoothSolver:  Solving for Uz, Initial residual = 0.0059789092, Final residual = 1.6610742e-07, No Iterations 1
DICPCG:  Solving for p, Initial residual = 0.04127887, Final residual = 0.0013563444, No Iterations 2
DICPCG:  Solving for p, Initial residual = 0.0068654373, Final residual = 0.00027740026, No Iterations 6
DICPCG:  Solving for p, Initial residual = 0.001399602, Final residual = 6.9968721e-05, No Iterations 21
time step continuity errors : sum local = 4.385666e-10, global = -2.0831816e-11, cumulative = -4.2201585e-08
DICPCG:  Solving for p, Initial residual = 0.00047659443, Final residual = 2.3543738e-05, No Iterations 49
DICPCG:  Solving for p, Initial residual = 0.00029760833, Final residual = 1.383422e-05, No Iterations 26
DICPCG:  Solving for p, Initial residual = 0.00010602869, Final residual = 9.7906907e-07, No Iterations 189
time step continuity errors : sum local = 6.1352618e-12, global = -2.7356631e-15, cumulative = -4.2201588e-08
ExecutionTime = 25.74 s  ClockTime = 26 s

Time = 1.2

Courant Number mean: 0.00033138239 max: 0.055101816
smoothSolver:  Solving for Ux, Initial residual = 0.0017832748, Final residual = 4.8895758e-08, No Iterations 1
smoothSolver:  Solving for Uy, Initial residual = 0.0033589572, Final residual = 8.133373e-08, No Iterations 1
smoothSolver:  Solving for Uz, Initial residual = 0.0054645497, Final residual = 1.5627452e-07, No Iterations 1
DICPCG:  Solving for p, Initial residual = 0.037793534, Final residual = 0.0012764871, No Iterations 2
DICPCG:  Solving for p, Initial residual = 0.0061955381, Final residual = 0.0002564184, No Iterations 6
DICPCG:  Solving for p, Initial residual = 0.0012657468, Final residual = 5.9128669e-05, No Iterations 9
time step continuity errors : sum local = 3.443809e-10, global = 2.7862457e-12, cumulative = -4.2198802e-08
DICPCG:  Solving for p, Initial residual = 0.00036240514, Final residual = 1.8053639e-05, No Iterations 64
DICPCG:  Solving for p, Initial residual = 0.00031259044, Final residual = 1.5591879e-05, No Iterations 5
DICPCG:  Solving for p, Initial residual = 7.3790659e-05, Final residual = 9.9281744e-07, No Iterations 203
time step continuity errors : sum local = 5.7810267e-12, global = 2.8680973e-15, cumulative = -4.2198799e-08
ExecutionTime = 27.69 s  ClockTime = 28 s

Time = 1.3

Courant Number mean: 0.00033137514 max: 0.055245937
smoothSolver:  Solving for Ux, Initial residual = 0.0016406554, Final residual = 4.5599549e-08, No Iterations 1
smoothSolver:  Solving for Uy, Initial residual = 0.0030923933, Final residual = 7.7223409e-08, No Iterations 1
smoothSolver:  Solving for Uz, Initial residual = 0.005031357, Final residual = 1.4769951e-07, No Iterations 1
DICPCG:  Solving for p, Initial residual = 0.034796544, Final residual = 0.0011041024, No Iterations 2
DICPCG:  Solving for p, Initial residual = 0.0055494501, Final residual = 0.00021465333, No Iterations 6
DICPCG:  Solving for p, Initial residual = 0.0011188435, Final residual = 5.3279917e-05, No Iterations 14
time step continuity errors : sum local = 2.8994675e-10, global = 3.4889493e-12, cumulative = -4.219531e-08
DICPCG:  Solving for p, Initial residual = 0.00035830239, Final residual = 1.7431581e-05, No Iterations 57
DICPCG:  Solving for p, Initial residual = 0.00025378931, Final residual = 1.2609462e-05, No Iterations 8
DICPCG:  Solving for p, Initial residual = 6.4224656e-05, Final residual = 9.5192716e-07, No Iterations 208
time step continuity errors : sum local = 5.1792263e-12, global = 6.1678423e-15, cumulative = -4.2195304e-08
ExecutionTime = 29.66 s  ClockTime = 30 s

Time = 1.4

Courant Number mean: 0.00033136676 max: 0.055374217
smoothSolver:  Solving for Ux, Initial residual = 0.0015200668, Final residual = 4.2951775e-08, No Iterations 1
smoothSolver:  Solving for Uy, Initial residual = 0.0028665671, Final residual = 7.3498458e-08, No Iterations 1
smoothSolver:  Solving for Uz, Initial residual = 0.0046666831, Final residual = 1.4022972e-07, No Iterations 1
DICPCG:  Solving for p, Initial residual = 0.032359809, Final residual = 0.0010138844, No Iterations 2
DICPCG:  Solving for p, Initial residual = 0.005083671, Final residual = 0.00019137745, No Iterations 6
DICPCG:  Solving for p, Initial residual = 0.0010154837, Final residual = 4.8476047e-05, No Iterations 9
time step continuity errors : sum local = 2.4766393e-10, global = 1.6406657e-11, cumulative = -4.2178897e-08
DICPCG:  Solving for p, Initial residual = 0.00029285634, Final residual = 1.4578379e-05, No Iterations 70
DICPCG:  Solving for p, Initial residual = 0.00025930044, Final residual = 1.2719371e-05, No Iterations 4
DICPCG:  Solving for p, Initial residual = 5.892436e-05, Final residual = 9.7050473e-07, No Iterations 207
time step continuity errors : sum local = 4.9573273e-12, global = -9.8738468e-15, cumulative = -4.2178907e-08
ExecutionTime = 31.63 s  ClockTime = 32 s

Time = 1.5

Courant Number mean: 0.00033135738 max: 0.055489424
smoothSolver:  Solving for Ux, Initial residual = 0.0014161924, Final residual = 4.0783034e-08, No Iterations 1
smoothSolver:  Solving for Uy, Initial residual = 0.0026715774, Final residual = 7.0409565e-08, No Iterations 1
smoothSolver:  Solving for Uz, Initial residual = 0.0043537639, Final residual = 1.3386075e-07, No Iterations 1
DICPCG:  Solving for p, Initial residual = 0.030188648, Final residual = 0.00091634125, No Iterations 2
DICPCG:  Solving for p, Initial residual = 0.0046520129, Final residual = 0.00016195849, No Iterations 6
DICPCG:  Solving for p, Initial residual = 0.00092117863, Final residual = 3.9382185e-05, No Iterations 10
time step continuity errors : sum local = 1.8968478e-10, global = 1.8242654e-11, cumulative = -4.2160664e-08
DICPCG:  Solving for p, Initial residual = 0.0002759479, Final residual = 1.3194061e-05, No Iterations 173
DICPCG:  Solving for p, Initial residual = 0.00017151401, Final residual = 6.8453567e-06, No Iterations 6
DICPCG:  Solving for p, Initial residual = 4.4814833e-05, Final residual = 9.9501713e-07, No Iterations 52
time step continuity errors : sum local = 4.789652e-12, global = -2.0890258e-13, cumulative = -4.2160873e-08
ExecutionTime = 33.7 s  ClockTime = 34 s

Time = 1.6

Courant Number mean: 0.00033134722 max: 0.055593223
smoothSolver:  Solving for Ux, Initial residual = 0.0013252943, Final residual = 3.8881699e-08, No Iterations 1
smoothSolver:  Solving for Uy, Initial residual = 0.0025012653, Final residual = 6.7578486e-08, No Iterations 1
smoothSolver:  Solving for Uz, Initial residual = 0.0040815428, Final residual = 1.2843062e-07, No Iterations 1
DICPCG:  Solving for p, Initial residual = 0.028273303, Final residual = 0.00082401903, No Iterations 2
DICPCG:  Solving for p, Initial residual = 0.0042767655, Final residual = 0.0001504323, No Iterations 6
DICPCG:  Solving for p, Initial residual = 0.00084325969, Final residual = 3.8000293e-05, No Iterations 10
time step continuity errors : sum local = 1.7318254e-10, global = 1.8265933e-11, cumulative = -4.2142607e-08
DICPCG:  Solving for p, Initial residual = 0.00025264776, Final residual = 1.1826332e-05, No Iterations 183
DICPCG:  Solving for p, Initial residual = 0.00014740405, Final residual = 6.6567225e-06, No Iterations 6
DICPCG:  Solving for p, Initial residual = 4.0501936e-05, Final residual = 9.6470861e-07, No Iterations 52
time step continuity errors : sum local = 4.3938398e-12, global = -2.2050935e-13, cumulative = -4.2142828e-08
ExecutionTime = 35.5 s  ClockTime = 36 s

Time = 1.7

Courant Number mean: 0.00033133721 max: 0.055687795
smoothSolver:  Solving for Ux, Initial residual = 0.0012454629, Final residual = 3.7092548e-08, No Iterations 1
smoothSolver:  Solving for Uy, Initial residual = 0.0023517799, Final residual = 6.5099748e-08, No Iterations 1
smoothSolver:  Solving for Uz, Initial residual = 0.0038416565, Final residual = 1.2347853e-07, No Iterations 1
DICPCG:  Solving for p, Initial residual = 0.026673348, Final residual = 0.0007619016, No Iterations 2
DICPCG:  Solving for p, Initial residual = 0.0039741823, Final residual = 0.00014462627, No Iterations 6
DICPCG:  Solving for p, Initial residual = 0.000789719, Final residual = 3.888022e-05, No Iterations 11
time step continuity errors : sum local = 1.6817641e-10, global = 1.8897525e-11, cumulative = -4.212393e-08
DICPCG:  Solving for p, Initial residual = 0.00024526428, Final residual = 1.1952373e-05, No Iterations 181
DICPCG:  Solving for p, Initial residual = 0.00013725359, Final residual = 6.2302179e-06, No Iterations 9
DICPCG:  Solving for p, Initial residual = 4.2069979e-05, Final residual = 9.998459e-07, No Iterations 32
time step continuity errors : sum local = 4.3219765e-12, global = -1.9949554e-13, cumulative = -4.212413e-08
ExecutionTime = 37.25 s  ClockTime = 38 s

Time = 1.8

Courant Number mean: 0.00033132718 max: 0.055774438
smoothSolver:  Solving for Ux, Initial residual = 0.0011744723, Final residual = 3.549235e-08, No Iterations 1
smoothSolver:  Solving for Uy, Initial residual = 0.0022193785, Final residual = 6.2798203e-08, No Iterations 1
smoothSolver:  Solving for Uz, Initial residual = 0.003628785, Final residual = 1.1901584e-07, No Iterations 1
DICPCG:  Solving for p, Initial residual = 0.025236018, Final residual = 0.00071846903, No Iterations 2
DICPCG:  Solving for p, Initial residual = 0.0037211101, Final residual = 0.00014675648, No Iterations 6
DICPCG:  Solving for p, Initial residual = 0.00074545781, Final residual = 3.3327194e-05, No Iterations 17
time step continuity errors : sum local = 1.3720306e-10, global = 1.8492188e-11, cumulative = -4.2105638e-08
DICPCG:  Solving for p, Initial residual = 0.00024971277, Final residual = 1.217452e-05, No Iterations 180
DICPCG:  Solving for p, Initial residual = 0.0001536194, Final residual = 7.504626e-06, No Iterations 9
DICPCG:  Solving for p, Initial residual = 4.6536239e-05, Final residual = 9.6715712e-07, No Iterations 48
time step continuity errors : sum local = 3.9787284e-12, global = -2.6246571e-13, cumulative = -4.21059e-08
ExecutionTime = 39.06 s  ClockTime = 39 s

Time = 1.9

Courant Number mean: 0.00033131694 max: 0.055854203
smoothSolver:  Solving for Ux, Initial residual = 0.0011109127, Final residual = 3.3761527e-08, No Iterations 1
smoothSolver:  Solving for Uy, Initial residual = 0.0021011315, Final residual = 6.0540162e-08, No Iterations 1
smoothSolver:  Solving for Uz, Initial residual = 0.0034388806, Final residual = 1.1471974e-07, No Iterations 1
DICPCG:  Solving for p, Initial residual = 0.02393218, Final residual = 0.00069191758, No Iterations 2
DICPCG:  Solving for p, Initial residual = 0.0034991247, Final residual = 0.00013999223, No Iterations 6
DICPCG:  Solving for p, Initial residual = 0.00070407977, Final residual = 3.5057341e-05, No Iterations 21
time step continuity errors : sum local = 1.376934e-10, global = 1.9200679e-11, cumulative = -4.2086699e-08
DICPCG:  Solving for p, Initial residual = 0.00025287864, Final residual = 1.145318e-05, No Iterations 178
DICPCG:  Solving for p, Initial residual = 0.00017956989, Final residual = 8.3247871e-06, No Iterations 6
DICPCG:  Solving for p, Initial residual = 4.9139038e-05, Final residual = 9.7424031e-07, No Iterations 51
time step continuity errors : sum local = 3.8235331e-12, global = -2.8183644e-13, cumulative = -4.2086981e-08
ExecutionTime = 40.87 s  ClockTime = 41 s

Time = 2

Courant Number mean: 0.00033130648 max: 0.05592695
smoothSolver:  Solving for Ux, Initial residual = 0.001053853, Final residual = 3.2383302e-08, No Iterations 1
smoothSolver:  Solving for Uy, Initial residual = 0.0019950139, Final residual = 5.8255888e-08, No Iterations 1
smoothSolver:  Solving for Uz, Initial residual = 0.0032687207, Final residual = 1.1046115e-07, No Iterations 1
DICPCG:  Solving for p, Initial residual = 0.022747494, Final residual = 0.00063413652, No Iterations 2
DICPCG:  Solving for p, Initial residual = 0.003276922, Final residual = 0.00013083087, No Iterations 6
DICPCG:  Solving for p, Initial residual = 0.00065505493, Final residual = 3.0420909e-05, No Iterations 22
time step continuity errors : sum local = 1.1425497e-10, global = 1.9007864e-11, cumulative = -4.2067973e-08
DICPCG:  Solving for p, Initial residual = 0.00023461481, Final residual = 1.1284512e-05, No Iterations 185
DICPCG:  Solving for p, Initial residual = 0.00018769247, Final residual = 8.6141741e-06, No Iterations 6
DICPCG:  Solving for p, Initial residual = 5.0184923e-05, Final residual = 9.4934559e-07, No Iterations 51
time step continuity errors : sum local = 3.5628133e-12, global = -2.6638717e-13, cumulative = -4.206824e-08
ExecutionTime = 43.02 s  ClockTime = 43 s

Time = 2.1

Courant Number mean: 0.000331296 max: 0.055993542
smoothSolver:  Solving for Ux, Initial residual = 0.0010025246, Final residual = 3.1203354e-08, No Iterations 1
smoothSolver:  Solving for Uy, Initial residual = 0.0018992864, Final residual = 5.6674364e-08, No Iterations 1
smoothSolver:  Solving for Uz, Initial residual = 0.0031152429, Final residual = 1.0704874e-07, No Iterations 1
DICPCG:  Solving for p, Initial residual = 0.021625223, Final residual = 0.00060961984, No Iterations 2
DICPCG:  Solving for p, Initial residual = 0.0030896069, Final residual = 0.00013080983, No Iterations 6
DICPCG:  Solving for p, Initial residual = 0.00062079226, Final residual = 2.851383e-05, No Iterations 23
time step continuity errors : sum local = 1.026237e-10, global = 1.9745194e-11, cumulative = -4.2048495e-08
DICPCG:  Solving for p, Initial residual = 0.00022350139, Final residual = 1.0595436e-05, No Iterations 186
DICPCG:  Solving for p, Initial residual = 0.00020421589, Final residual = 8.6257573e-06, No Iterations 6
DICPCG:  Solving for p, Initial residual = 5.2139752e-05, Final residual = 9.9096962e-07, No Iterations 51
time step continuity errors : sum local = 3.5637092e-12, global = -2.3785448e-13, cumulative = -4.2048732e-08
ExecutionTime = 44.88 s  ClockTime = 45 s

Time = 2.2

Courant Number mean: 0.00033128531 max: 0.056055203
smoothSolver:  Solving for Ux, Initial residual = 0.00095583645, Final residual = 3.0280277e-08, No Iterations 1
smoothSolver:  Solving for Uy, Initial residual = 0.0018122673, Final residual = 5.5206653e-08, No Iterations 1
smoothSolver:  Solving for Uz, Initial residual = 0.0029754681, Final residual = 1.0407833e-07, No Iterations 1
DICPCG:  Solving for p, Initial residual = 0.020666183, Final residual = 0.00057562935, No Iterations 2
DICPCG:  Solving for p, Initial residual = 0.0029191201, Final residual = 0.00013107433, No Iterations 6
DICPCG:  Solving for p, Initial residual = 0.00059481124, Final residual = 2.6847756e-05, No Iterations 24
time step continuity errors : sum local = 9.2774615e-11, global = 1.9532998e-11, cumulative = -4.2029199e-08
DICPCG:  Solving for p, Initial residual = 0.00022074421, Final residual = 1.0854877e-05, No Iterations 187
DICPCG:  Solving for p, Initial residual = 0.00021584037, Final residual = 9.1645944e-06, No Iterations 6
DICPCG:  Solving for p, Initial residual = 5.4421768e-05, Final residual = 9.2919964e-07, No Iterations 54
time step continuity errors : sum local = 3.2083181e-12, global = -2.2784025e-13, cumulative = -4.2029427e-08
ExecutionTime = 46.79 s  ClockTime = 47 s

Time = 2.3

Courant Number mean: 0.00033127482 max: 0.056112559
smoothSolver:  Solving for Ux, Initial residual = 0.00091320142, Final residual = 2.9349658e-08, No Iterations 1
smoothSolver:  Solving for Uy, Initial residual = 0.001733025, Final residual = 5.3838207e-08, No Iterations 1
smoothSolver:  Solving for Uz, Initial residual = 0.0028477731, Final residual = 1.0117761e-07, No Iterations 1
DICPCG:  Solving for p, Initial residual = 0.019839959, Final residual = 0.00055464291, No Iterations 2
DICPCG:  Solving for p, Initial residual = 0.0027657384, Final residual = 0.00011757269, No Iterations 6
DICPCG:  Solving for p, Initial residual = 0.00055711559, Final residual = 2.706848e-05, No Iterations 23
time step continuity errors : sum local = 8.9945321e-11, global = 1.994707e-11, cumulative = -4.200948e-08
DICPCG:  Solving for p, Initial residual = 0.00020731, Final residual = 1.0220973e-05, No Iterations 187
DICPCG:  Solving for p, Initial residual = 0.0002209604, Final residual = 8.8300002e-06, No Iterations 6
DICPCG:  Solving for p, Initial residual = 5.5179503e-05, Final residual = 9.6330662e-07, No Iterations 51
time step continuity errors : sum local = 3.198286e-12, global = -2.3846338e-13, cumulative = -4.2009719e-08
ExecutionTime = 48.72 s  ClockTime = 49 s

Time = 2.4

Courant Number mean: 0.00033126487 max: 0.056166178
smoothSolver:  Solving for Ux, Initial residual = 0.00087409888, Final residual = 2.8446322e-08, No Iterations 1
smoothSolver:  Solving for Uy, Initial residual = 0.0016602532, Final residual = 5.244044e-08, No Iterations 1
smoothSolver:  Solving for Uz, Initial residual = 0.0027301823, Final residual = 9.8241399e-08, No Iterations 1
DICPCG:  Solving for p, Initial residual = 0.019060344, Final residual = 0.00053693012, No Iterations 2
DICPCG:  Solving for p, Initial residual = 0.0026327405, Final residual = 0.00011448978, No Iterations 6
DICPCG:  Solving for p, Initial residual = 0.00053508175, Final residual = 2.2935563e-05, No Iterations 24
time step continuity errors : sum local = 7.339307e-11, global = 1.9195466e-11, cumulative = -4.1990523e-08
DICPCG:  Solving for p, Initial residual = 0.00019995233, Final residual = 9.9913829e-06, No Iterations 188
DICPCG:  Solving for p, Initial residual = 0.00022523314, Final residual = 1.1134483e-05, No Iterations 5
DICPCG:  Solving for p, Initial residual = 5.6509159e-05, Final residual = 9.7732971e-07, No Iterations 52
time step continuity errors : sum local = 3.1248345e-12, global = -2.218789e-13, cumulative = -4.1990745e-08
ExecutionTime = 50.66 s  ClockTime = 51 s

Time = 2.5

Courant Number mean: 0.00033125514 max: 0.056216314
smoothSolver:  Solving for Ux, Initial residual = 0.00083805085, Final residual = 2.7444826e-08, No Iterations 1
smoothSolver:  Solving for Uy, Initial residual = 0.0015933027, Final residual = 5.1089369e-08, No Iterations 1
smoothSolver:  Solving for Uz, Initial residual = 0.0026215137, Final residual = 9.5176211e-08, No Iterations 1
DICPCG:  Solving for p, Initial residual = 0.018334802, Final residual = 0.00050568491, No Iterations 2
DICPCG:  Solving for p, Initial residual = 0.002515587, Final residual = 0.00012033667, No Iterations 6
DICPCG:  Solving for p, Initial residual = 0.00051676838, Final residual = 2.4789984e-05, No Iterations 24
time step continuity errors : sum local = 7.6509171e-11, global = 1.7899652e-11, cumulative = -4.1972845e-08
DICPCG:  Solving for p, Initial residual = 0.00019728214, Final residual = 9.2943237e-06, No Iterations 193
DICPCG:  Solving for p, Initial residual = 0.000226611, Final residual = 1.0876289e-05, No Iterations 5
DICPCG:  Solving for p, Initial residual = 5.5811656e-05, Final residual = 9.87825e-07, No Iterations 50
time step continuity errors : sum local = 3.0462585e-12, global = -2.0854433e-13, cumulative = -4.1973054e-08
ExecutionTime = 52.93 s  ClockTime = 53 s

Time = 2.6

Courant Number mean: 0.00033124555 max: 0.056262459
smoothSolver:  Solving for Ux, Initial residual = 0.00080480863, Final residual = 2.6543326e-08, No Iterations 1
smoothSolver:  Solving for Uy, Initial residual = 0.0015314438, Final residual = 4.9745778e-08, No Iterations 1
smoothSolver:  Solving for Uz, Initial residual = 0.0025223863, Final residual = 9.235031e-08, No Iterations 1
DICPCG:  Solving for p, Initial residual = 0.017645798, Final residual = 0.00048724071, No Iterations 2
DICPCG:  Solving for p, Initial residual = 0.0024040673, Final residual = 0.00010736017, No Iterations 11
DICPCG:  Solving for p, Initial residual = 0.00049224115, Final residual = 2.2314581e-05, No Iterations 22
time step continuity errors : sum local = 6.6516484e-11, global = 1.7134694e-11, cumulative = -4.1955919e-08
DICPCG:  Solving for p, Initial residual = 0.00018051636, Final residual = 9.0057121e-06, No Iterations 195
DICPCG:  Solving for p, Initial residual = 0.00023025172, Final residual = 1.0146697e-05, No Iterations 5
DICPCG:  Solving for p, Initial residual = 5.5521509e-05, Final residual = 9.5459772e-07, No Iterations 49
time step continuity errors : sum local = 2.8432583e-12, global = -1.6499343e-13, cumulative = -4.1956084e-08
ExecutionTime = 55.06 s  ClockTime = 55 s

Time = 2.7

Courant Number mean: 0.00033123614 max: 0.056305034
smoothSolver:  Solving for Ux, Initial residual = 0.00077396564, Final residual = 2.5653889e-08, No Iterations 1
smoothSolver:  Solving for Uy, Initial residual = 0.0014740738, Final residual = 4.8490212e-08, No Iterations 1
smoothSolver:  Solving for Uz, Initial residual = 0.0024308207, Final residual = 8.9575239e-08, No Iterations 1
DICPCG:  Solving for p, Initial residual = 0.017023524, Final residual = 0.00046753132, No Iterations 2
DICPCG:  Solving for p, Initial residual = 0.0023041423, Final residual = 0.00011182077, No Iterations 11
DICPCG:  Solving for p, Initial residual = 0.00047516035, Final residual = 2.3013868e-05, No Iterations 22
time step continuity errors : sum local = 6.6345416e-11, global = 1.7855574e-11, cumulative = -4.1938229e-08
DICPCG:  Solving for p, Initial residual = 0.00018050461, Final residual = 8.4349319e-06, No Iterations 196
DICPCG:  Solving for p, Initial residual = 0.00024158263, Final residual = 1.0477245e-05, No Iterations 5
DICPCG:  Solving for p, Initial residual = 5.7831205e-05, Final residual = 9.5155624e-07, No Iterations 48
time step continuity errors : sum local = 2.7409339e-12, global = -1.7498828e-13, cumulative = -4.1938404e-08
ExecutionTime = 57.12 s  ClockTime = 58 s

Time = 2.8

Courant Number mean: 0.00033122677 max: 0.056344794
smoothSolver:  Solving for Ux, Initial residual = 0.00074526773, Final residual = 2.4768327e-08, No Iterations 1
smoothSolver:  Solving for Uy, Initial residual = 0.0014207473, Final residual = 4.7334328e-08, No Iterations 1
smoothSolver:  Solving for Uz, Initial residual = 0.0023454414, Final residual = 8.6212115e-08, No Iterations 1
DICPCG:  Solving for p, Initial residual = 0.016444589, Final residual = 0.00044205928, No Iterations 2
DICPCG:  Solving for p, Initial residual = 0.0022021687, Final residual = 0.00011010843, No Iterations 11
DICPCG:  Solving for p, Initial residual = 0.00045673219, Final residual = 2.2200249e-05, No Iterations 22
time step continuity errors : sum local = 6.196642e-11, global = 1.615916e-11, cumulative = -4.1922245e-08
DICPCG:  Solving for p, Initial residual = 0.00017275082, Final residual = 8.1412441e-06, No Iterations 196
DICPCG:  Solving for p, Initial residual = 0.00023334494, Final residual = 1.0230173e-05, No Iterations 5
DICPCG:  Solving for p, Initial residual = 5.581712e-05, Final residual = 9.5740657e-07, No Iterations 48
time step continuity errors : sum local = 2.6702746e-12, global = -1.6116351e-13, cumulative = -4.1922406e-08
ExecutionTime = 59.14 s  ClockTime = 60 s

Time = 2.9

Courant Number mean: 0.00033121764 max: 0.056381995
smoothSolver:  Solving for Ux, Initial residual = 0.00071842194, Final residual = 2.3949794e-08, No Iterations 1
smoothSolver:  Solving for Uy, Initial residual = 0.0013713017, Final residual = 4.6185141e-08, No Iterations 1
smoothSolver:  Solving for Uz, Initial residual = 0.0022657022, Final residual = 8.371284e-08, No Iterations 1
DICPCG:  Solving for p, Initial residual = 0.015943343, Final residual = 0.00043413364, No Iterations 2
DICPCG:  Solving for p, Initial residual = 0.0021193541, Final residual = 0.00010194172, No Iterations 13
DICPCG:  Solving for p, Initial residual = 0.00045296575, Final residual = 2.1307961e-05, No Iterations 24
time step continuity errors : sum local = 5.764974e-11, global = 1.6840732e-11, cumulative = -4.1905565e-08
DICPCG:  Solving for p, Initial residual = 0.00017443753, Final residual = 8.5096613e-06, No Iterations 191
DICPCG:  Solving for p, Initial residual = 0.00024236818, Final residual = 1.168134e-05, No Iterations 4
DICPCG:  Solving for p, Initial residual = 5.5612129e-05, Final residual = 9.7352163e-07, No Iterations 46
time step continuity errors : sum local = 2.6317572e-12, global = -1.6084186e-13, cumulative = -4.1905726e-08
ExecutionTime = 61.07 s  ClockTime = 62 s

Time = 3

Courant Number mean: 0.00033120876 max: 0.056416706
smoothSolver:  Solving for Ux, Initial residual = 0.0006934004, Final residual = 2.3157934e-08, No Iterations 1
smoothSolver:  Solving for Uy, Initial residual = 0.0013250928, Final residual = 4.5017694e-08, No Iterations 1
smoothSolver:  Solving for Uz, Initial residual = 0.0021914162, Final residual = 8.1548442e-08, No Iterations 1
DICPCG:  Solving for p, Initial residual = 0.01542718, Final residual = 0.00041578679, No Iterations 2
DICPCG:  Solving for p, Initial residual = 0.0020368619, Final residual = 0.00010045938, No Iterations 13
DICPCG:  Solving for p, Initial residual = 0.0004391338, Final residual = 2.143503e-05, No Iterations 25
time step continuity errors : sum local = 5.626825e-11, global = 1.6565802e-11, cumulative = -4.188916e-08
DICPCG:  Solving for p, Initial residual = 0.0001733721, Final residual = 8.2959683e-06, No Iterations 190
DICPCG:  Solving for p, Initial residual = 0.00024621078, Final residual = 1.1808433e-05, No Iterations 4
DICPCG:  Solving for p, Initial residual = 5.6411436e-05, Final residual = 9.8764954e-07, No Iterations 46
time step continuity errors : sum local = 2.5905196e-12, global = -1.5486105e-13, cumulative = -4.1889315e-08
ExecutionTime = 63.61 s  ClockTime = 64 s

Time = 3.1

Courant Number mean: 0.00033119987 max: 0.05644936
smoothSolver:  Solving for Ux, Initial residual = 0.0006701567, Final residual = 2.2368008e-08, No Iterations 1
smoothSolver:  Solving for Uy, Initial residual = 0.0012824325, Final residual = 4.3943784e-08, No Iterations 1
smoothSolver:  Solving for Uz, Initial residual = 0.0021220436, Final residual = 7.8995292e-08, No Iterations 1
DICPCG:  Solving for p, Initial residual = 0.015004046, Final residual = 0.00040524369, No Iterations 2
DICPCG:  Solving for p, Initial residual = 0.001964178, Final residual = 9.7687714e-05, No Iterations 13
DICPCG:  Solving for p, Initial residual = 0.00042440436, Final residual = 2.0892874e-05, No Iterations 25
time step continuity errors : sum local = 5.326562e-11, global = 1.6009822e-11, cumulative = -4.1873305e-08
DICPCG:  Solving for p, Initial residual = 0.00016849943, Final residual = 8.2590967e-06, No Iterations 190
DICPCG:  Solving for p, Initial residual = 0.00024427366, Final residual = 1.1749238e-05, No Iterations 4
DICPCG:  Solving for p, Initial residual = 5.5796978e-05, Final residual = 9.5304924e-07, No Iterations 47
time step continuity errors : sum local = 2.4278056e-12, global = -1.4937677e-13, cumulative = -4.1873454e-08
ExecutionTime = 65.72 s  ClockTime = 66 s

Time = 3.2

Courant Number mean: 0.00033119106 max: 0.056479932
smoothSolver:  Solving for Ux, Initial residual = 0.00064836685, Final residual = 2.1770044e-08, No Iterations 1
smoothSolver:  Solving for Uy, Initial residual = 0.0012423103, Final residual = 4.2818422e-08, No Iterations 1
smoothSolver:  Solving for Uz, Initial residual = 0.0020570852, Final residual = 7.699664e-08, No Iterations 1
DICPCG:  Solving for p, Initial residual = 0.014541539, Final residual = 0.00040025128, No Iterations 2
DICPCG:  Solving for p, Initial residual = 0.0018932672, Final residual = 9.2636324e-05, No Iterations 18
DICPCG:  Solving for p, Initial residual = 0.00042315985, Final residual = 1.9954372e-05, No Iterations 25
time step continuity errors : sum local = 4.9458401e-11, global = 1.5011963e-11, cumulative = -4.1858442e-08
DICPCG:  Solving for p, Initial residual = 0.00016906577, Final residual = 8.2791229e-06, No Iterations 189
DICPCG:  Solving for p, Initial residual = 0.00023371171, Final residual = 1.0852089e-05, No Iterations 4
DICPCG:  Solving for p, Initial residual = 5.3356551e-05, Final residual = 9.2855001e-07, No Iterations 47
time step continuity errors : sum local = 2.2997055e-12, global = -1.5222616e-13, cumulative = -4.1858595e-08
ExecutionTime = 68 s  ClockTime = 69 s

Time = 3.3

Courant Number mean: 0.00033118246 max: 0.056507882
smoothSolver:  Solving for Ux, Initial residual = 0.00062787424, Final residual = 2.1169585e-08, No Iterations 1
smoothSolver:  Solving for Uy, Initial residual = 0.0012045684, Final residual = 4.1767373e-08, No Iterations 1
smoothSolver:  Solving for Uz, Initial residual = 0.0019961425, Final residual = 7.5442326e-08, No Iterations 1
DICPCG:  Solving for p, Initial residual = 0.014149565, Final residual = 0.00039128773, No Iterations 2
DICPCG:  Solving for p, Initial residual = 0.001828097, Final residual = 8.8841122e-05, No Iterations 17
DICPCG:  Solving for p, Initial residual = 0.00040762151, Final residual = 1.9019946e-05, No Iterations 25
time step continuity errors : sum local = 4.5868615e-11, global = 1.4511636e-11, cumulative = -4.1844083e-08
DICPCG:  Solving for p, Initial residual = 0.00016398641, Final residual = 8.1819061e-06, No Iterations 189
DICPCG:  Solving for p, Initial residual = 0.00023288077, Final residual = 1.0688459e-05, No Iterations 4
DICPCG:  Solving for p, Initial residual = 5.3099058e-05, Final residual = 9.3589059e-07, No Iterations 47
time step continuity errors : sum local = 2.2552784e-12, global = -1.4043391e-13, cumulative = -4.1844224e-08
ExecutionTime = 70.41 s  ClockTime = 71 s

Time = 3.4

Courant Number mean: 0.00033117392 max: 0.056533215
smoothSolver:  Solving for Ux, Initial residual = 0.00060864551, Final residual = 2.0430493e-08, No Iterations 1
smoothSolver:  Solving for Uy, Initial residual = 0.0011692137, Final residual = 4.1058809e-08, No Iterations 1
smoothSolver:  Solving for Uz, Initial residual = 0.0019391405, Final residual = 7.4049685e-08, No Iterations 1
DICPCG:  Solving for p, Initial residual = 0.013766253, Final residual = 0.0004898853, No Iterations 2
DICPCG:  Solving for p, Initial residual = 0.0018088497, Final residual = 8.9590109e-05, No Iterations 16
DICPCG:  Solving for p, Initial residual = 0.00040696036, Final residual = 1.9827704e-05, No Iterations 189
time step continuity errors : sum local = 4.6562189e-11, global = 8.4127935e-14, cumulative = -4.1844139e-08
DICPCG:  Solving for p, Initial residual = 0.00031249294, Final residual = 1.3616429e-05, No Iterations 6
DICPCG:  Solving for p, Initial residual = 7.7411703e-05, Final residual = 3.6162869e-06, No Iterations 39
DICPCG:  Solving for p, Initial residual = 4.9839093e-05, Final residual = 9.6139506e-07, No Iterations 48
time step continuity errors : sum local = 2.2556454e-12, global = -9.7393647e-14, cumulative = -4.1844237e-08
ExecutionTime = 72.64 s  ClockTime = 73 s

Time = 3.5

Courant Number mean: 0.00033116541 max: 0.056555791
smoothSolver:  Solving for Ux, Initial residual = 0.00059069755, Final residual = 2.0058896e-08, No Iterations 1
smoothSolver:  Solving for Uy, Initial residual = 0.0011359792, Final residual = 4.0026374e-08, No Iterations 1
smoothSolver:  Solving for Uz, Initial residual = 0.001885238, Final residual = 7.2272788e-08, No Iterations 1
DICPCG:  Solving for p, Initial residual = 0.013304213, Final residual = 0.00036772672, No Iterations 2
DICPCG:  Solving for p, Initial residual = 0.0016937257, Final residual = 7.604463e-05, No Iterations 20
DICPCG:  Solving for p, Initial residual = 0.00038348231, Final residual = 1.8910111e-05, No Iterations 29
time step continuity errors : sum local = 4.3272367e-11, global = 1.3407993e-11, cumulative = -4.1830829e-08
DICPCG:  Solving for p, Initial residual = 0.00016403699, Final residual = 7.6792575e-06, No Iterations 182
DICPCG:  Solving for p, Initial residual = 0.00023558509, Final residual = 1.1166862e-05, No Iterations 4
DICPCG:  Solving for p, Initial residual = 5.3325457e-05, Final residual = 9.6085902e-07, No Iterations 48
time step continuity errors : sum local = 2.1971163e-12, global = -1.525644e-13, cumulative = -4.1830981e-08
ExecutionTime = 74.92 s  ClockTime = 76 s

Time = 3.6

Courant Number mean: 0.00033115689 max: 0.056576313
smoothSolver:  Solving for Ux, Initial residual = 0.00057366124, Final residual = 1.9716884e-08, No Iterations 1
smoothSolver:  Solving for Uy, Initial residual = 0.0011046279, Final residual = 3.923028e-08, No Iterations 1
smoothSolver:  Solving for Uz, Initial residual = 0.0018345584, Final residual = 7.0749585e-08, No Iterations 1
DICPCG:  Solving for p, Initial residual = 0.012958299, Final residual = 0.0003555513, No Iterations 2
DICPCG:  Solving for p, Initial residual = 0.0016410027, Final residual = 7.6095127e-05, No Iterations 20
DICPCG:  Solving for p, Initial residual = 0.00037796728, Final residual = 1.8764395e-05, No Iterations 30
time step continuity errors : sum local = 4.1878802e-11, global = 1.2688038e-11, cumulative = -4.1818293e-08
DICPCG:  Solving for p, Initial residual = 0.00016573874, Final residual = 8.0410024e-06, No Iterations 182
DICPCG:  Solving for p, Initial residual = 0.00023443329, Final residual = 1.1302865e-05, No Iterations 4
DICPCG:  Solving for p, Initial residual = 5.317062e-05, Final residual = 9.4889764e-07, No Iterations 48
time step continuity errors : sum local = 2.1162268e-12, global = -1.4613685e-13, cumulative = -4.1818439e-08
ExecutionTime = 76.97 s  ClockTime = 78 s

Time = 3.7

Courant Number mean: 0.00033114835 max: 0.056594928
smoothSolver:  Solving for Ux, Initial residual = 0.00055749405, Final residual = 1.9290107e-08, No Iterations 1
smoothSolver:  Solving for Uy, Initial residual = 0.0010747921, Final residual = 3.8422351e-08, No Iterations 1
smoothSolver:  Solving for Uz, Initial residual = 0.0017862613, Final residual = 6.9292314e-08, No Iterations 1
DICPCG:  Solving for p, Initial residual = 0.012688387, Final residual = 0.0003376004, No Iterations 2
DICPCG:  Solving for p, Initial residual = 0.0016003485, Final residual = 7.3026399e-05, No Iterations 20
DICPCG:  Solving for p, Initial residual = 0.00036556645, Final residual = 1.8226104e-05, No Iterations 187
time step continuity errors : sum local = 3.9699875e-11, global = 5.2584603e-14, cumulative = -4.1818387e-08
DICPCG:  Solving for p, Initial residual = 0.00026884608, Final residual = 1.2193013e-05, No Iterations 6
DICPCG:  Solving for p, Initial residual = 6.6852549e-05, Final residual = 3.326432e-06, No Iterations 41
DICPCG:  Solving for p, Initial residual = 4.2689716e-05, Final residual = 9.2416779e-07, No Iterations 52
time step continuity errors : sum local = 2.0115552e-12, global = 2.209846e-14, cumulative = -4.1818365e-08
ExecutionTime = 79.23 s  ClockTime = 80 s

Time = 3.8

Courant Number mean: 0.00033113981 max: 0.056611713
smoothSolver:  Solving for Ux, Initial residual = 0.00054233149, Final residual = 1.8876312e-08, No Iterations 1
smoothSolver:  Solving for Uy, Initial residual = 0.0010467848, Final residual = 3.7572581e-08, No Iterations 1
smoothSolver:  Solving for Uz, Initial residual = 0.001740297, Final residual = 6.7874768e-08, No Iterations 1
DICPCG:  Solving for p, Initial residual = 0.012377751, Final residual = 0.00032845351, No Iterations 2
DICPCG:  Solving for p, Initial residual = 0.0015568724, Final residual = 7.3796595e-05, No Iterations 20
DICPCG:  Solving for p, Initial residual = 0.00036084635, Final residual = 1.7706496e-05, No Iterations 188
time step continuity errors : sum local = 3.7664754e-11, global = 4.6032391e-14, cumulative = -4.1818319e-08
DICPCG:  Solving for p, Initial residual = 0.00027424882, Final residual = 1.2071586e-05, No Iterations 6
DICPCG:  Solving for p, Initial residual = 6.7879736e-05, Final residual = 3.3557175e-06, No Iterations 40
DICPCG:  Solving for p, Initial residual = 4.2174236e-05, Final residual = 9.3622124e-07, No Iterations 50
time step continuity errors : sum local = 1.9900155e-12, global = 5.4564338e-16, cumulative = -4.1818318e-08
ExecutionTime = 81.41 s  ClockTime = 82 s

Time = 3.9

Courant Number mean: 0.00033113124 max: 0.056626645
smoothSolver:  Solving for Ux, Initial residual = 0.00052800053, Final residual = 1.8507682e-08, No Iterations 1
smoothSolver:  Solving for Uy, Initial residual = 0.0010203224, Final residual = 3.683682e-08, No Iterations 1
smoothSolver:  Solving for Uz, Initial residual = 0.0016968383, Final residual = 6.6422779e-08, No Iterations 1
DICPCG:  Solving for p, Initial residual = 0.012086991, Final residual = 0.00034492484, No Iterations 2
DICPCG:  Solving for p, Initial residual = 0.0015167134, Final residual = 7.1878774e-05, No Iterations 20
DICPCG:  Solving for p, Initial residual = 0.00035541592, Final residual = 1.7711602e-05, No Iterations 189
time step continuity errors : sum local = 3.6815445e-11, global = 5.6334448e-14, cumulative = -4.1818262e-08
DICPCG:  Solving for p, Initial residual = 0.00027836859, Final residual = 1.1901518e-05, No Iterations 6
DICPCG:  Solving for p, Initial residual = 6.8271202e-05, Final residual = 3.2895794e-06, No Iterations 39
DICPCG:  Solving for p, Initial residual = 4.0924517e-05, Final residual = 9.2338808e-07, No Iterations 49
time step continuity errors : sum local = 1.9179016e-12, global = 9.1595237e-16, cumulative = -4.1818261e-08
ExecutionTime = 83.49 s  ClockTime = 84 s

Time = 4

Courant Number mean: 0.00033112271 max: 0.056639726
smoothSolver:  Solving for Ux, Initial residual = 0.000514445, Final residual = 1.8160213e-08, No Iterations 1
smoothSolver:  Solving for Uy, Initial residual = 0.00099504789, Final residual = 3.6177308e-08, No Iterations 1
smoothSolver:  Solving for Uz, Initial residual = 0.0016554812, Final residual = 6.4838444e-08, No Iterations 1
DICPCG:  Solving for p, Initial residual = 0.011839941, Final residual = 0.0003429339, No Iterations 2
DICPCG:  Solving for p, Initial residual = 0.001482238, Final residual = 7.0423611e-05, No Iterations 20
DICPCG:  Solving for p, Initial residual = 0.00035240189, Final residual = 1.72304e-05, No Iterations 190
time step continuity errors : sum local = 3.5017559e-11, global = 6.0549867e-14, cumulative = -4.18182e-08
DICPCG:  Solving for p, Initial residual = 0.00028402963, Final residual = 1.1935185e-05, No Iterations 6
DICPCG:  Solving for p, Initial residual = 7.011112e-05, Final residual = 3.2781342e-06, No Iterations 39
DICPCG:  Solving for p, Initial residual = 4.0471623e-05, Final residual = 9.8531336e-07, No Iterations 48
time step continuity errors : sum local = 2.000923e-12, global = -4.9956989e-14, cumulative = -4.181825e-08
ExecutionTime = 85.85 s  ClockTime = 87 s

Time = 4.1

Courant Number mean: 0.0003311143 max: 0.056650835
smoothSolver:  Solving for Ux, Initial residual = 0.00050149885, Final residual = 1.7850939e-08, No Iterations 1
smoothSolver:  Solving for Uy, Initial residual = 0.00097104034, Final residual = 3.5520109e-08, No Iterations 1
smoothSolver:  Solving for Uz, Initial residual = 0.001616255, Final residual = 6.3508629e-08, No Iterations 1
DICPCG:  Solving for p, Initial residual = 0.011564571, Final residual = 0.00031921865, No Iterations 2
DICPCG:  Solving for p, Initial residual = 0.0014451512, Final residual = 6.2065673e-05, No Iterations 21
DICPCG:  Solving for p, Initial residual = 0.00034316575, Final residual = 1.6701177e-05, No Iterations 190
time step continuity errors : sum local = 3.3204411e-11, global = 6.5460119e-14, cumulative = -4.1818185e-08
DICPCG:  Solving for p, Initial residual = 0.00027856349, Final residual = 1.1743201e-05, No Iterations 6
DICPCG:  Solving for p, Initial residual = 6.862943e-05, Final residual = 3.232468e-06, No Iterations 39
DICPCG:  Solving for p, Initial residual = 3.9244898e-05, Final residual = 9.2204792e-07, No Iterations 48
time step continuity errors : sum local = 1.8317902e-12, global = -1.9728743e-14, cumulative = -4.1818205e-08
ExecutionTime = 87.91 s  ClockTime = 89 s

Time = 4.2

Courant Number mean: 0.00033110631 max: 0.056660521
smoothSolver:  Solving for Ux, Initial residual = 0.00048925817, Final residual = 1.7590547e-08, No Iterations 1
smoothSolver:  Solving for Uy, Initial residual = 0.00094823989, Final residual = 3.4884585e-08, No Iterations 1
smoothSolver:  Solving for Uz, Initial residual = 0.0015792188, Final residual = 6.2314329e-08, No Iterations 1
DICPCG:  Solving for p, Initial residual = 0.011343697, Final residual = 0.00031160439, No Iterations 2
DICPCG:  Solving for p, Initial residual = 0.0014186839, Final residual = 6.5989815e-05, No Iterations 20
DICPCG:  Solving for p, Initial residual = 0.00033729647, Final residual = 1.6186236e-05, No Iterations 188
time step continuity errors : sum local = 3.1500085e-11, global = 2.156658e-14, cumulative = -4.1818183e-08
DICPCG:  Solving for p, Initial residual = 0.00026224294, Final residual = 1.1170218e-05, No Iterations 6
DICPCG:  Solving for p, Initial residual = 6.5378591e-05, Final residual = 3.1554259e-06, No Iterations 40
DICPCG:  Solving for p, Initial residual = 4.0601903e-05, Final residual = 9.0185974e-07, No Iterations 51
time step continuity errors : sum local = 1.7539109e-12, global = -4.918289e-14, cumulative = -4.1818232e-08
ExecutionTime = 89.94 s  ClockTime = 91 s

Time = 4.3

Courant Number mean: 0.00033109848 max: 0.056668797
smoothSolver:  Solving for Ux, Initial residual = 0.00047758866, Final residual = 1.7313416e-08, No Iterations 1
smoothSolver:  Solving for Uy, Initial residual = 0.00092651205, Final residual = 3.4233736e-08, No Iterations 1
smoothSolver:  Solving for Uz, Initial residual = 0.0015437815, Final residual = 6.1225535e-08, No Iterations 1
DICPCG:  Solving for p, Initial residual = 0.011093335, Final residual = 0.00031308026, No Iterations 2
DICPCG:  Solving for p, Initial residual = 0.0013828658, Final residual = 6.2031971e-05, No Iterations 21
DICPCG:  Solving for p, Initial residual = 0.00034136681, Final residual = 1.6818284e-05, No Iterations 189
time step continuity errors : sum local = 3.2057521e-11, global = 4.4643655e-14, cumulative = -4.1818188e-08
DICPCG:  Solving for p, Initial residual = 0.000271823, Final residual = 1.1652365e-05, No Iterations 6
DICPCG:  Solving for p, Initial residual = 6.8179017e-05, Final residual = 3.2284602e-06, No Iterations 39
DICPCG:  Solving for p, Initial residual = 4.0723246e-05, Final residual = 9.0094891e-07, No Iterations 49
time step continuity errors : sum local = 1.7160894e-12, global = -1.6681031e-14, cumulative = -4.1818204e-08
ExecutionTime = 91.98 s  ClockTime = 93 s

Time = 4.4

Courant Number mean: 0.00033109069 max: 0.056675752
smoothSolver:  Solving for Ux, Initial residual = 0.00046651313, Final residual = 1.7062345e-08, No Iterations 1
smoothSolver:  Solving for Uy, Initial residual = 0.00090567963, Final residual = 3.3712126e-08, No Iterations 1
smoothSolver:  Solving for Uz, Initial residual = 0.001510301, Final residual = 6.0345035e-08, No Iterations 1
DICPCG:  Solving for p, Initial residual = 0.010818058, Final residual = 0.00031291777, No Iterations 2
DICPCG:  Solving for p, Initial residual = 0.001337696, Final residual = 5.980973e-05, No Iterations 21
DICPCG:  Solving for p, Initial residual = 0.00032822378, Final residual = 1.5288933e-05, No Iterations 192
time step continuity errors : sum local = 2.8554003e-11, global = 2.9358305e-14, cumulative = -4.1818175e-08
DICPCG:  Solving for p, Initial residual = 0.0002740634, Final residual = 1.1499154e-05, No Iterations 6
DICPCG:  Solving for p, Initial residual = 6.707147e-05, Final residual = 3.0115916e-06, No Iterations 39
DICPCG:  Solving for p, Initial residual = 3.6733472e-05, Final residual = 9.8866227e-07, No Iterations 47
time step continuity errors : sum local = 1.8451113e-12, global = -4.9843682e-15, cumulative = -4.181818e-08
ExecutionTime = 94 s  ClockTime = 95 s

Time = 4.5

Courant Number mean: 0.00033108291 max: 0.056681419
smoothSolver:  Solving for Ux, Initial residual = 0.00045592851, Final residual = 1.6784423e-08, No Iterations 1
smoothSolver:  Solving for Uy, Initial residual = 0.0008857283, Final residual = 3.3019649e-08, No Iterations 1
smoothSolver:  Solving for Uz, Initial residual = 0.0014782648, Final residual = 5.9354224e-08, No Iterations 1
DICPCG:  Solving for p, Initial residual = 0.01055315, Final residual = 0.00028575461, No Iterations 2
DICPCG:  Solving for p, Initial residual = 0.001288585, Final residual = 5.8082376e-05, No Iterations 21
DICPCG:  Solving for p, Initial residual = 0.00031480106, Final residual = 1.5669473e-05, No Iterations 191
time step continuity errors : sum local = 2.8689164e-11, global = 4.060534e-14, cumulative = -4.1818139e-08
DICPCG:  Solving for p, Initial residual = 0.00026430639, Final residual = 1.1279559e-05, No Iterations 6
DICPCG:  Solving for p, Initial residual = 6.5056842e-05, Final residual = 3.0934877e-06, No Iterations 39
DICPCG:  Solving for p, Initial residual = 3.6210633e-05, Final residual = 8.9950804e-07, No Iterations 49
time step continuity errors : sum local = 1.6457663e-12, global = -2.216579e-14, cumulative = -4.1818161e-08
ExecutionTime = 96.44 s  ClockTime = 97 s

Time = 4.6

Courant Number mean: 0.00033107517 max: 0.056685826
smoothSolver:  Solving for Ux, Initial residual = 0.00044581241, Final residual = 1.6496454e-08, No Iterations 1
smoothSolver:  Solving for Uy, Initial residual = 0.00086664932, Final residual = 3.2370377e-08, No Iterations 1
smoothSolver:  Solving for Uz, Initial residual = 0.0014478854, Final residual = 5.8401537e-08, No Iterations 1
DICPCG:  Solving for p, Initial residual = 0.010360174, Final residual = 0.00027451256, No Iterations 2
DICPCG:  Solving for p, Initial residual = 0.0012616564, Final residual = 5.7750381e-05, No Iterations 21
DICPCG:  Solving for p, Initial residual = 0.00031098518, Final residual = 1.4631628e-05, No Iterations 192
time step continuity errors : sum local = 2.6275036e-11, global = 2.5260577e-14, cumulative = -4.1818136e-08
DICPCG:  Solving for p, Initial residual = 0.00026328219, Final residual = 1.0959711e-05, No Iterations 6
DICPCG:  Solving for p, Initial residual = 6.4435705e-05, Final residual = 2.9041124e-06, No Iterations 39
DICPCG:  Solving for p, Initial residual = 3.4934877e-05, Final residual = 9.9046178e-07, No Iterations 47
time step continuity errors : sum local = 1.7774072e-12, global = -2.526161e-14, cumulative = -4.1818161e-08
ExecutionTime = 98.5 s  ClockTime = 99 s

Time = 4.7

Courant Number mean: 0.00033106741 max: 0.056688982
smoothSolver:  Solving for Ux, Initial residual = 0.00043615086, Final residual = 1.6275839e-08, No Iterations 1
smoothSolver:  Solving for Uy, Initial residual = 0.00084836233, Final residual = 3.1723036e-08, No Iterations 1
smoothSolver:  Solving for Uz, Initial residual = 0.0014185597, Final residual = 5.7609943e-08, No Iterations 1
DICPCG:  Solving for p, Initial residual = 0.010186891, Final residual = 0.00030409734, No Iterations 2
DICPCG:  Solving for p, Initial residual = 0.0012449403, Final residual = 5.7299144e-05, No Iterations 21
DICPCG:  Solving for p, Initial residual = 0.00031631595, Final residual = 1.568719e-05, No Iterations 191
time step continuity errors : sum local = 2.7640295e-11, global = 3.397449e-14, cumulative = -4.1818127e-08
DICPCG:  Solving for p, Initial residual = 0.00026796191, Final residual = 1.1236447e-05, No Iterations 6
DICPCG:  Solving for p, Initial residual = 6.636153e-05, Final residual = 3.0795451e-06, No Iterations 39
DICPCG:  Solving for p, Initial residual = 3.6894208e-05, Final residual = 9.1096878e-07, No Iterations 48
time step continuity errors : sum local = 1.6039736e-12, global = -2.1716173e-14, cumulative = -4.1818149e-08
ExecutionTime = 100.71 s  ClockTime = 101 s

Time = 4.8

Courant Number mean: 0.00033105981 max: 0.056690764
smoothSolver:  Solving for Ux, Initial residual = 0.00042691894, Final residual = 1.5960971e-08, No Iterations 1
smoothSolver:  Solving for Uy, Initial residual = 0.0008308516, Final residual = 3.0735905e-08, No Iterations 1
smoothSolver:  Solving for Uz, Initial residual = 0.001390412, Final residual = 5.6300469e-08, No Iterations 1
DICPCG:  Solving for p, Initial residual = 0.01002371, Final residual = 0.00032694324, No Iterations 2
DICPCG:  Solving for p, Initial residual = 0.0012245192, Final residual = 5.4908229e-05, No Iterations 21
DICPCG:  Solving for p, Initial residual = 0.00031420583, Final residual = 1.5131451e-05, No Iterations 191
time step continuity errors : sum local = 2.6170953e-11, global = 2.6166536e-14, cumulative = -4.1818123e-08
DICPCG:  Solving for p, Initial residual = 0.00026190864, Final residual = 1.0756858e-05, No Iterations 6
DICPCG:  Solving for p, Initial residual = 6.5167835e-05, Final residual = 2.9894691e-06, No Iterations 39
DICPCG:  Solving for p, Initial residual = 3.6014454e-05, Final residual = 9.0746406e-07, No Iterations 48
time step continuity errors : sum local = 1.5684645e-12, global = -1.1414243e-14, cumulative = -4.1818134e-08
ExecutionTime = 102.75 s  ClockTime = 104 s

Time = 4.9

Courant Number mean: 0.00033105246 max: 0.056691148
smoothSolver:  Solving for Ux, Initial residual = 0.0004180189, Final residual = 1.5644852e-08, No Iterations 1
smoothSolver:  Solving for Uy, Initial residual = 0.00081407135, Final residual = 3.0183109e-08, No Iterations 1
smoothSolver:  Solving for Uz, Initial residual = 0.001363522, Final residual = 5.5361868e-08, No Iterations 1
DICPCG:  Solving for p, Initial residual = 0.0097601739, Final residual = 0.00030766056, No Iterations 2
DICPCG:  Solving for p, Initial residual = 0.0011911383, Final residual = 5.5966781e-05, No Iterations 21
DICPCG:  Solving for p, Initial residual = 0.00030583111, Final residual = 1.4384534e-05, No Iterations 192
time step continuity errors : sum local = 2.4435463e-11, global = 2.3207766e-14, cumulative = -4.1818111e-08
DICPCG:  Solving for p, Initial residual = 0.00026355459, Final residual = 1.0834901e-05, No Iterations 6
DICPCG:  Solving for p, Initial residual = 6.454411e-05, Final residual = 3.1639112e-06, No Iterations 38
DICPCG:  Solving for p, Initial residual = 3.4577569e-05, Final residual = 9.8619652e-07, No Iterations 46
time step continuity errors : sum local = 1.6741243e-12, global = -5.030052e-14, cumulative = -4.1818162e-08
ExecutionTime = 104.79 s  ClockTime = 106 s

Time = 5

Courant Number mean: 0.00033104513 max: 0.056690188
smoothSolver:  Solving for Ux, Initial residual = 0.00040951677, Final residual = 1.5331675e-08, No Iterations 1
smoothSolver:  Solving for Uy, Initial residual = 0.00079791721, Final residual = 2.9679516e-08, No Iterations 1
smoothSolver:  Solving for Uz, Initial residual = 0.0013377939, Final residual = 5.472488e-08, No Iterations 1
DICPCG:  Solving for p, Initial residual = 0.0096325946, Final residual = 0.00033484895, No Iterations 2
DICPCG:  Solving for p, Initial residual = 0.0011956647, Final residual = 5.7086935e-05, No Iterations 21
DICPCG:  Solving for p, Initial residual = 0.00031289022, Final residual = 1.4891955e-05, No Iterations 192
time step continuity errors : sum local = 2.4852835e-11, global = 2.6232026e-14, cumulative = -4.1818135e-08
DICPCG:  Solving for p, Initial residual = 0.00026823498, Final residual = 1.1421312e-05, No Iterations 6
DICPCG:  Solving for p, Initial residual = 6.6093957e-05, Final residual = 2.9587859e-06, No Iterations 39
DICPCG:  Solving for p, Initial residual = 3.6437272e-05, Final residual = 9.5405156e-07, No Iterations 47
time step continuity errors : sum local = 1.5910888e-12, global = -5.4721314e-14, cumulative = -4.181819e-08
ExecutionTime = 107.23 s  ClockTime = 108 s

Time = 5.1

Courant Number mean: 0.00033103786 max: 0.056688189
smoothSolver:  Solving for Ux, Initial residual = 0.00040136645, Final residual = 1.5053698e-08, No Iterations 1
smoothSolver:  Solving for Uy, Initial residual = 0.00078229119, Final residual = 2.9164425e-08, No Iterations 1
smoothSolver:  Solving for Uz, Initial residual = 0.0013132426, Final residual = 5.4169727e-08, No Iterations 1
DICPCG:  Solving for p, Initial residual = 0.0093787029, Final residual = 0.00027374004, No Iterations 2
DICPCG:  Solving for p, Initial residual = 0.0011200055, Final residual = 5.4938797e-05, No Iterations 21
DICPCG:  Solving for p, Initial residual = 0.00029037479, Final residual = 1.4093376e-05, No Iterations 192
time step continuity errors : sum local = 2.3117346e-11, global = 2.0583556e-14, cumulative = -4.1818169e-08
DICPCG:  Solving for p, Initial residual = 0.00025111398, Final residual = 1.0593334e-05, No Iterations 6
DICPCG:  Solving for p, Initial residual = 6.1792646e-05, Final residual = 2.7615784e-06, No Iterations 39
DICPCG:  Solving for p, Initial residual = 3.357063e-05, Final residual = 9.5311227e-07, No Iterations 26
time step continuity errors : sum local = 1.5623691e-12, global = -4.932779e-14, cumulative = -4.1818219e-08
ExecutionTime = 109.17 s  ClockTime = 110 s

Time = 5.2

Courant Number mean: 0.00033103065 max: 0.056685178
smoothSolver:  Solving for Ux, Initial residual = 0.00039350414, Final residual = 1.4792076e-08, No Iterations 1
smoothSolver:  Solving for Uy, Initial residual = 0.00076726157, Final residual = 2.8686482e-08, No Iterations 1
smoothSolver:  Solving for Uz, Initial residual = 0.0012898667, Final residual = 5.3615786e-08, No Iterations 1
DICPCG:  Solving for p, Initial residual = 0.0092164001, Final residual = 0.00027992621, No Iterations 2
DICPCG:  Solving for p, Initial residual = 0.0011037811, Final residual = 5.1691599e-05, No Iterations 22
DICPCG:  Solving for p, Initial residual = 0.00028815078, Final residual = 1.4232753e-05, No Iterations 191
time step continuity errors : sum local = 2.295874e-11, global = 3.1844078e-14, cumulative = -4.1818187e-08
DICPCG:  Solving for p, Initial residual = 0.00024984397, Final residual = 1.0384473e-05, No Iterations 6
DICPCG:  Solving for p, Initial residual = 6.1409029e-05, Final residual = 2.8446331e-06, No Iterations 39
DICPCG:  Solving for p, Initial residual = 3.3627754e-05, Final residual = 9.8865995e-07, No Iterations 47
time step continuity errors : sum local = 1.5937785e-12, global = -9.7499177e-15, cumulative = -4.1818197e-08
ExecutionTime = 111.2 s  ClockTime = 112 s

Time = 5.3

Courant Number mean: 0.0003310235 max: 0.056681181
smoothSolver:  Solving for Ux, Initial residual = 0.00038593788, Final residual = 1.4532777e-08, No Iterations 1
smoothSolver:  Solving for Uy, Initial residual = 0.00075276262, Final residual = 2.822461e-08, No Iterations 1
smoothSolver:  Solving for Uz, Initial residual = 0.0012674216, Final residual = 5.3039056e-08, No Iterations 1
DICPCG:  Solving for p, Initial residual = 0.0090640143, Final residual = 0.00028483787, No Iterations 2
DICPCG:  Solving for p, Initial residual = 0.0010905776, Final residual = 5.2425902e-05, No Iterations 22
DICPCG:  Solving for p, Initial residual = 0.00028771253, Final residual = 1.4356141e-05, No Iterations 191
time step continuity errors : sum local = 2.2782306e-11, global = 2.8860121e-14, cumulative = -4.1818168e-08
DICPCG:  Solving for p, Initial residual = 0.00024367779, Final residual = 1.0272209e-05, No Iterations 6
DICPCG:  Solving for p, Initial residual = 6.0258132e-05, Final residual = 2.7973212e-06, No Iterations 39
DICPCG:  Solving for p, Initial residual = 3.3560937e-05, Final residual = 9.5681223e-07, No Iterations 26
time step continuity errors : sum local = 1.5174487e-12, global = -1.3895357e-14, cumulative = -4.1818182e-08
ExecutionTime = 113.13 s  ClockTime = 114 s

Time = 5.4

Courant Number mean: 0.0003310164 max: 0.056675968
smoothSolver:  Solving for Ux, Initial residual = 0.00037861767, Final residual = 1.4246455e-08, No Iterations 1
smoothSolver:  Solving for Uy, Initial residual = 0.0007388913, Final residual = 2.7895393e-08, No Iterations 1
smoothSolver:  Solving for Uz, Initial residual = 0.0012456806, Final residual = 5.2387598e-08, No Iterations 1
DICPCG:  Solving for p, Initial residual = 0.0089582291, Final residual = 0.00026609157, No Iterations 2
DICPCG:  Solving for p, Initial residual = 0.0010815977, Final residual = 5.0843655e-05, No Iterations 22
DICPCG:  Solving for p, Initial residual = 0.00028524166, Final residual = 1.4254495e-05, No Iterations 189
time step continuity errors : sum local = 2.2261528e-11, global = 2.3615784e-14, cumulative = -4.1818158e-08
DICPCG:  Solving for p, Initial residual = 0.00023759583, Final residual = 1.0184986e-05, No Iterations 6
DICPCG:  Solving for p, Initial residual = 5.9251644e-05, Final residual = 2.8791809e-06, No Iterations 40
DICPCG:  Solving for p, Initial residual = 3.5335779e-05, Final residual = 9.5976856e-07, No Iterations 49
time step continuity errors : sum local = 1.4979927e-12, global = 2.5246217e-14, cumulative = -4.1818133e-08
ExecutionTime = 115.16 s  ClockTime = 116 s

Time = 5.5

Courant Number mean: 0.00033100943 max: 0.056681811
smoothSolver:  Solving for Ux, Initial residual = 0.00037153419, Final residual = 1.3937547e-08, No Iterations 1
smoothSolver:  Solving for Uy, Initial residual = 0.00072579999, Final residual = 2.7566773e-08, No Iterations 1
smoothSolver:  Solving for Uz, Initial residual = 0.0012246286, Final residual = 5.1692174e-08, No Iterations 1
DICPCG:  Solving for p, Initial residual = 0.0087973644, Final residual = 0.00027517627, No Iterations 2
DICPCG:  Solving for p, Initial residual = 0.0010630928, Final residual = 5.1414898e-05, No Iterations 22
DICPCG:  Solving for p, Initial residual = 0.00029039244, Final residual = 1.408484e-05, No Iterations 190
time step continuity errors : sum local = 2.1650627e-11, global = 3.128814e-14, cumulative = -4.1818102e-08
DICPCG:  Solving for p, Initial residual = 0.00023068573, Final residual = 1.0407312e-05, No Iterations 6
DICPCG:  Solving for p, Initial residual = 5.8112228e-05, Final residual = 2.7816089e-06, No Iterations 40
DICPCG:  Solving for p, Initial residual = 3.4421201e-05, Final residual = 9.3802359e-07, No Iterations 48
time step continuity errors : sum local = 1.4410636e-12, global = 3.1111928e-14, cumulative = -4.181807e-08
ExecutionTime = 117.58 s  ClockTime = 118 s

Time = 5.6

Courant Number mean: 0.00033100266 max: 0.056718513
smoothSolver:  Solving for Ux, Initial residual = 0.00036479376, Final residual = 1.3636206e-08, No Iterations 1
smoothSolver:  Solving for Uy, Initial residual = 0.00071301682, Final residual = 2.7212626e-08, No Iterations 1
smoothSolver:  Solving for Uz, Initial residual = 0.0012044523, Final residual = 5.0973617e-08, No Iterations 1
DICPCG:  Solving for p, Initial residual = 0.0087223783, Final residual = 0.00027691559, No Iterations 2
DICPCG:  Solving for p, Initial residual = 0.0010548683, Final residual = 5.1895159e-05, No Iterations 21
DICPCG:  Solving for p, Initial residual = 0.0002926647, Final residual = 1.4146998e-05, No Iterations 190
time step continuity errors : sum local = 2.1409906e-11, global = 2.4252924e-14, cumulative = -4.1818046e-08
DICPCG:  Solving for p, Initial residual = 0.0002312942, Final residual = 1.0442106e-05, No Iterations 6
DICPCG:  Solving for p, Initial residual = 5.8736494e-05, Final residual = 2.8069621e-06, No Iterations 40
DICPCG:  Solving for p, Initial residual = 3.4632859e-05, Final residual = 9.873252e-07, No Iterations 48
time step continuity errors : sum local = 1.4933636e-12, global = 8.526334e-15, cumulative = -4.1818038e-08
ExecutionTime = 119.62 s  ClockTime = 120 s

Time = 5.7

Courant Number mean: 0.00033099594 max: 0.056754303
smoothSolver:  Solving for Ux, Initial residual = 0.00035836169, Final residual = 1.3362471e-08, No Iterations 1
smoothSolver:  Solving for Uy, Initial residual = 0.00070069927, Final residual = 2.6832998e-08, No Iterations 1
smoothSolver:  Solving for Uz, Initial residual = 0.0011854939, Final residual = 5.0214825e-08, No Iterations 1
DICPCG:  Solving for p, Initial residual = 0.0085387225, Final residual = 0.00026721457, No Iterations 2
DICPCG:  Solving for p, Initial residual = 0.001033826, Final residual = 5.0495531e-05, No Iterations 21
DICPCG:  Solving for p, Initial residual = 0.0002848191, Final residual = 1.3557202e-05, No Iterations 190
time step continuity errors : sum local = 2.0208239e-11, global = 2.1716229e-14, cumulative = -4.1818016e-08
DICPCG:  Solving for p, Initial residual = 0.00022265084, Final residual = 1.0205174e-05, No Iterations 6
DICPCG:  Solving for p, Initial residual = 5.6850007e-05, Final residual = 2.8118884e-06, No Iterations 40
DICPCG:  Solving for p, Initial residual = 3.3447004e-05, Final residual = 9.2255732e-07, No Iterations 49
time step continuity errors : sum local = 1.3744192e-12, global = 9.7806212e-15, cumulative = -4.1818006e-08
ExecutionTime = 121.68 s  ClockTime = 122 s

Time = 5.8

Courant Number mean: 0.00033098954 max: 0.056789269
smoothSolver:  Solving for Ux, Initial residual = 0.00035216937, Final residual = 1.3092268e-08, No Iterations 1
smoothSolver:  Solving for Uy, Initial residual = 0.00068894054, Final residual = 2.6443875e-08, No Iterations 1
smoothSolver:  Solving for Uz, Initial residual = 0.0011674079, Final residual = 4.9493561e-08, No Iterations 1
DICPCG:  Solving for p, Initial residual = 0.008346116, Final residual = 0.0002706247, No Iterations 2
DICPCG:  Solving for p, Initial residual = 0.0010047414, Final residual = 4.9837654e-05, No Iterations 22
DICPCG:  Solving for p, Initial residual = 0.00028118052, Final residual = 1.4030571e-05, No Iterations 189
time step continuity errors : sum local = 2.0607592e-11, global = 2.6956557e-14, cumulative = -4.1817979e-08
DICPCG:  Solving for p, Initial residual = 0.00022066846, Final residual = 1.0364895e-05, No Iterations 6
DICPCG:  Solving for p, Initial residual = 5.5865105e-05, Final residual = 2.7205777e-06, No Iterations 41
DICPCG:  Solving for p, Initial residual = 3.4192816e-05, Final residual = 9.9668381e-07, No Iterations 49
time step continuity errors : sum local = 1.4631076e-12, global = 1.7917357e-14, cumulative = -4.1817961e-08
ExecutionTime = 123.75 s  ClockTime = 125 s

Time = 5.9

Courant Number mean: 0.00033098316 max: 0.056823584
smoothSolver:  Solving for Ux, Initial residual = 0.00034623372, Final residual = 1.2850262e-08, No Iterations 1
smoothSolver:  Solving for Uy, Initial residual = 0.00067777809, Final residual = 2.6122736e-08, No Iterations 1
smoothSolver:  Solving for Uz, Initial residual = 0.0011503034, Final residual = 4.8943052e-08, No Iterations 1
DICPCG:  Solving for p, Initial residual = 0.0082835548, Final residual = 0.00027296945, No Iterations 2
DICPCG:  Solving for p, Initial residual = 0.00099341664, Final residual = 4.2525115e-05, No Iterations 23
DICPCG:  Solving for p, Initial residual = 0.00028007936, Final residual = 1.3708416e-05, No Iterations 190
time step continuity errors : sum local = 1.984507e-11, global = 2.7467462e-14, cumulative = -4.1817934e-08
DICPCG:  Solving for p, Initial residual = 0.00022828221, Final residual = 1.0454306e-05, No Iterations 6
DICPCG:  Solving for p, Initial residual = 5.7626271e-05, Final residual = 2.8785974e-06, No Iterations 39
DICPCG:  Solving for p, Initial residual = 3.2888865e-05, Final residual = 9.9488776e-07, No Iterations 26
time step continuity errors : sum local = 1.4394488e-12, global = -5.6160362e-15, cumulative = -4.1817939e-08
ExecutionTime = 125.7 s  ClockTime = 127 s

Time = 6

Courant Number mean: 0.00033097679 max: 0.056857731
smoothSolver:  Solving for Ux, Initial residual = 0.00034043557, Final residual = 1.2636594e-08, No Iterations 1
smoothSolver:  Solving for Uy, Initial residual = 0.00066700528, Final residual = 2.5808307e-08, No Iterations 1
smoothSolver:  Solving for Uz, Initial residual = 0.0011334953, Final residual = 4.8439062e-08, No Iterations 1
DICPCG:  Solving for p, Initial residual = 0.0081551941, Final residual = 0.00028964753, No Iterations 2
DICPCG:  Solving for p, Initial residual = 0.00099200054, Final residual = 4.7650837e-05, No Iterations 22
DICPCG:  Solving for p, Initial residual = 0.00028206534, Final residual = 1.3386393e-05, No Iterations 188
time step continuity errors : sum local = 1.910565e-11, global = 2.4505106e-14, cumulative = -4.1817915e-08
DICPCG:  Solving for p, Initial residual = 0.00022163243, Final residual = 1.0618296e-05, No Iterations 6
DICPCG:  Solving for p, Initial residual = 5.5888531e-05, Final residual = 2.645008e-06, No Iterations 43
DICPCG:  Solving for p, Initial residual = 3.4754893e-05, Final residual = 9.7772983e-07, No Iterations 50
time step continuity errors : sum local = 1.3947181e-12, global = 4.607976e-15, cumulative = -4.181791e-08
ExecutionTime = 128.08 s  ClockTime = 129 s

Time = 6.1

Courant Number mean: 0.00033097039 max: 0.056891856
smoothSolver:  Solving for Ux, Initial residual = 0.00033486061, Final residual = 1.2445865e-08, No Iterations 1
smoothSolver:  Solving for Uy, Initial residual = 0.00065634872, Final residual = 2.5413522e-08, No Iterations 1
smoothSolver:  Solving for Uz, Initial residual = 0.0011173051, Final residual = 4.7877602e-08, No Iterations 1
DICPCG:  Solving for p, Initial residual = 0.0080738415, Final residual = 0.00027193536, No Iterations 2
DICPCG:  Solving for p, Initial residual = 0.00097730685, Final residual = 4.2562629e-05, No Iterations 23
DICPCG:  Solving for p, Initial residual = 0.00028469056, Final residual = 1.410983e-05, No Iterations 188
time step continuity errors : sum local = 1.9858786e-11, global = 1.6238374e-14, cumulative = -4.1817894e-08
DICPCG:  Solving for p, Initial residual = 0.00022382275, Final residual = 1.0690379e-05, No Iterations 6
[...]
DICPCG:  Solving for p, Initial residual = 1.4724395e-05, Final residual = 9.9783294e-07, No Iterations 24
DICPCG:  Solving for p, Initial residual = 7.4161394e-06, Final residual = 9.6231172e-07, No Iterations 2
time step continuity errors : sum local = 5.9276091e-13, global = -1.4735161e-15, cumulative = -4.1673845e-08
ExecutionTime = 370.81 s  ClockTime = 374 s

Time = 18.6

Courant Number mean: 0.00033065924 max: 0.059705475
smoothSolver:  Solving for Ux, Initial residual = 0.00013245419, Final residual = 3.2144412e-09, No Iterations 1
smoothSolver:  Solving for Uy, Initial residual = 0.00023728706, Final residual = 7.3466346e-09, No Iterations 1
smoothSolver:  Solving for Uz, Initial residual = 0.00043447986, Final residual = 1.2636207e-08, No Iterations 1
DICPCG:  Solving for p, Initial residual = 0.0026022134, Final residual = 8.3183163e-05, No Iterations 2
DICPCG:  Solving for p, Initial residual = 0.0003310827, Final residual = 1.6479287e-05, No Iterations 8
DICPCG:  Solving for p, Initial residual = 8.8645339e-05, Final residual = 4.315555e-06, No Iterations 199
time step continuity errors : sum local = 2.6486814e-12, global = 1.9109497e-15, cumulative = -4.1673843e-08
DICPCG:  Solving for p, Initial residual = 6.4041253e-05, Final residual = 3.0660922e-06, No Iterations 7
DICPCG:  Solving for p, Initial residual = 1.728559e-05, Final residual = 9.3413324e-07, No Iterations 36
DICPCG:  Solving for p, Initial residual = 1.0545196e-05, Final residual = 8.0264194e-07, No Iterations 3
time step continuity errors : sum local = 4.9253929e-13, global = -2.5379526e-15, cumulative = -4.1673846e-08
ExecutionTime = 372.53 s  ClockTime = 375 s

Time = 18.7

Courant Number mean: 0.00033065948 max: 0.059709824
smoothSolver:  Solving for Ux, Initial residual = 0.0001320007, Final residual = 3.1906977e-09, No Iterations 1
smoothSolver:  Solving for Uy, Initial residual = 0.00023637986, Final residual = 7.3117102e-09, No Iterations 1
smoothSolver:  Solving for Uz, Initial residual = 0.00043279097, Final residual = 1.252151e-08, No Iterations 1
DICPCG:  Solving for p, Initial residual = 0.0026275638, Final residual = 0.00010637277, No Iterations 2
DICPCG:  Solving for p, Initial residual = 0.00035892237, Final residual = 1.3405356e-05, No Iterations 8
DICPCG:  Solving for p, Initial residual = 8.9605838e-05, Final residual = 4.112037e-06, No Iterations 23
time step continuity errors : sum local = 2.5140158e-12, global = 7.0922732e-13, cumulative = -4.1673137e-08
DICPCG:  Solving for p, Initial residual = 3.6979415e-05, Final residual = 1.7836953e-06, No Iterations 188
DICPCG:  Solving for p, Initial residual = 4.678137e-05, Final residual = 2.301665e-06, No Iterations 4
DICPCG:  Solving for p, Initial residual = 1.1256395e-05, Final residual = 9.5651737e-07, No Iterations 10
time step continuity errors : sum local = 5.8471617e-13, global = -2.7737452e-15, cumulative = -4.1673139e-08
ExecutionTime = 374.24 s  ClockTime = 377 s

Time = 18.8

Courant Number mean: 0.00033065975 max: 0.059714096
smoothSolver:  Solving for Ux, Initial residual = 0.00013154594, Final residual = 3.161285e-09, No Iterations 1
smoothSolver:  Solving for Uy, Initial residual = 0.00023543981, Final residual = 7.2856316e-09, No Iterations 1
smoothSolver:  Solving for Uz, Initial residual = 0.00043090447, Final residual = 1.240989e-08, No Iterations 1
DICPCG:  Solving for p, Initial residual = 0.0025874985, Final residual = 7.4068587e-05, No Iterations 2
DICPCG:  Solving for p, Initial residual = 0.0003061458, Final residual = 1.3751333e-05, No Iterations 8
DICPCG:  Solving for p, Initial residual = 7.428807e-05, Final residual = 3.5663351e-06, No Iterations 36
time step continuity errors : sum local = 2.1724355e-12, global = 6.0188404e-13, cumulative = -4.1672537e-08
DICPCG:  Solving for p, Initial residual = 3.5247844e-05, Final residual = 1.7109972e-06, No Iterations 181
DICPCG:  Solving for p, Initial residual = 4.1002676e-05, Final residual = 1.7377336e-06, No Iterations 5
DICPCG:  Solving for p, Initial residual = 9.8895009e-06, Final residual = 9.5923904e-07, No Iterations 12
time step continuity errors : sum local = 5.8425389e-13, global = -1.0192152e-14, cumulative = -4.1672548e-08
ExecutionTime = 376.28 s  ClockTime = 379 s

Time = 18.9

Courant Number mean: 0.00033066004 max: 0.059718234
smoothSolver:  Solving for Ux, Initial residual = 0.0001310816, Final residual = 3.128127e-09, No Iterations 1
smoothSolver:  Solving for Uy, Initial residual = 0.00023456394, Final residual = 7.263462e-09, No Iterations 1
smoothSolver:  Solving for Uz, Initial residual = 0.00042916424, Final residual = 1.2301874e-08, No Iterations 1
DICPCG:  Solving for p, Initial residual = 0.0025327085, Final residual = 8.0543073e-05, No Iterations 2
DICPCG:  Solving for p, Initial residual = 0.00030870471, Final residual = 1.5062724e-05, No Iterations 7
DICPCG:  Solving for p, Initial residual = 7.8238355e-05, Final residual = 3.7704503e-06, No Iterations 200
time step continuity errors : sum local = 2.2887871e-12, global = 1.8847415e-15, cumulative = -4.1672546e-08
DICPCG:  Solving for p, Initial residual = 5.7493064e-05, Final residual = 2.8024992e-06, No Iterations 8
DICPCG:  Solving for p, Initial residual = 1.5422147e-05, Final residual = 9.9326594e-07, No Iterations 25
DICPCG:  Solving for p, Initial residual = 7.7258067e-06, Final residual = 7.801187e-07, No Iterations 3
time step continuity errors : sum local = 4.7348275e-13, global = -1.1742735e-14, cumulative = -4.1672557e-08
ExecutionTime = 378.59 s  ClockTime = 382 s

Time = 19

Courant Number mean: 0.00033066033 max: 0.059722117
smoothSolver:  Solving for Ux, Initial residual = 0.0001306228, Final residual = 3.1071206e-09, No Iterations 1
smoothSolver:  Solving for Uy, Initial residual = 0.00023366498, Final residual = 7.2372905e-09, No Iterations 1
smoothSolver:  Solving for Uz, Initial residual = 0.00042751092, Final residual = 1.2185776e-08, No Iterations 1
DICPCG:  Solving for p, Initial residual = 0.0024974306, Final residual = 8.7243247e-05, No Iterations 2
DICPCG:  Solving for p, Initial residual = 0.00030353687, Final residual = 1.4091895e-05, No Iterations 8
DICPCG:  Solving for p, Initial residual = 7.5570916e-05, Final residual = 3.6352675e-06, No Iterations 199
time step continuity errors : sum local = 2.199167e-12, global = 2.6905708e-15, cumulative = -4.1672555e-08
DICPCG:  Solving for p, Initial residual = 5.4504e-05, Final residual = 2.5578478e-06, No Iterations 16
DICPCG:  Solving for p, Initial residual = 1.6729792e-05, Final residual = 9.7314548e-07, No Iterations 23
DICPCG:  Solving for p, Initial residual = 7.0266461e-06, Final residual = 9.1112791e-07, No Iterations 3
time step continuity errors : sum local = 5.5110988e-13, global = -6.4254202e-15, cumulative = -4.1672561e-08
ExecutionTime = 381.07 s  ClockTime = 384 s

Time = 19.1

Courant Number mean: 0.00033066059 max: 0.059725722
smoothSolver:  Solving for Ux, Initial residual = 0.00013019942, Final residual = 3.0881766e-09, No Iterations 1
smoothSolver:  Solving for Uy, Initial residual = 0.00023276186, Final residual = 7.2148197e-09, No Iterations 1
smoothSolver:  Solving for Uz, Initial residual = 0.00042589134, Final residual = 1.2068432e-08, No Iterations 1
DICPCG:  Solving for p, Initial residual = 0.0024318292, Final residual = 7.6592533e-05, No Iterations 2
DICPCG:  Solving for p, Initial residual = 0.00028806694, Final residual = 1.4393838e-05, No Iterations 8
DICPCG:  Solving for p, Initial residual = 7.3551091e-05, Final residual = 3.5398727e-06, No Iterations 200
time step continuity errors : sum local = 2.1341363e-12, global = 1.8985683e-15, cumulative = -4.1672559e-08
DICPCG:  Solving for p, Initial residual = 5.4283317e-05, Final residual = 2.6523339e-06, No Iterations 8
DICPCG:  Solving for p, Initial residual = 1.4374879e-05, Final residual = 9.8310568e-07, No Iterations 24
DICPCG:  Solving for p, Initial residual = 7.237747e-06, Final residual = 8.929367e-07, No Iterations 2
time step continuity errors : sum local = 5.3826304e-13, global = -1.0752124e-14, cumulative = -4.167257e-08
ExecutionTime = 383.15 s  ClockTime = 386 s

Time = 19.2

Courant Number mean: 0.00033066093 max: 0.059729057
smoothSolver:  Solving for Ux, Initial residual = 0.0001297891, Final residual = 3.0652041e-09, No Iterations 1
smoothSolver:  Solving for Uy, Initial residual = 0.00023189113, Final residual = 7.2127169e-09, No Iterations 1
smoothSolver:  Solving for Uz, Initial residual = 0.00042442587, Final residual = 1.1976613e-08, No Iterations 1
DICPCG:  Solving for p, Initial residual = 0.0025269728, Final residual = 8.9363294e-05, No Iterations 2
DICPCG:  Solving for p, Initial residual = 0.00031966651, Final residual = 1.5863441e-05, No Iterations 9
DICPCG:  Solving for p, Initial residual = 8.4722326e-05, Final residual = 4.2055465e-06, No Iterations 196
time step continuity errors : sum local = 2.526515e-12, global = 3.8094999e-15, cumulative = -4.1672566e-08
DICPCG:  Solving for p, Initial residual = 5.8280615e-05, Final residual = 2.7734323e-06, No Iterations 8
DICPCG:  Solving for p, Initial residual = 1.5847549e-05, Final residual = 9.9445453e-07, No Iterations 32
DICPCG:  Solving for p, Initial residual = 9.8225208e-06, Final residual = 7.9748256e-07, No Iterations 3
time step continuity errors : sum local = 4.7903085e-13, global = -7.0465627e-15, cumulative = -4.1672573e-08
ExecutionTime = 385 s  ClockTime = 388 s

Time = 19.3

Courant Number mean: 0.00033066136 max: 0.059732138
smoothSolver:  Solving for Ux, Initial residual = 0.00012937281, Final residual = 3.0495308e-09, No Iterations 1
smoothSolver:  Solving for Uy, Initial residual = 0.00023102521, Final residual = 7.2036024e-09, No Iterations 1
smoothSolver:  Solving for Uz, Initial residual = 0.00042306005, Final residual = 1.1867776e-08, No Iterations 1
DICPCG:  Solving for p, Initial residual = 0.0025305896, Final residual = 7.7030047e-05, No Iterations 2
DICPCG:  Solving for p, Initial residual = 0.00030773825, Final residual = 1.4014769e-05, No Iterations 9
DICPCG:  Solving for p, Initial residual = 8.0626179e-05, Final residual = 4.0205948e-06, No Iterations 197
time step continuity errors : sum local = 2.4069402e-12, global = 2.4848859e-15, cumulative = -4.1672571e-08
DICPCG:  Solving for p, Initial residual = 5.8920349e-05, Final residual = 2.7038914e-06, No Iterations 6
DICPCG:  Solving for p, Initial residual = 1.5559694e-05, Final residual = 9.8956163e-07, No Iterations 34
DICPCG:  Solving for p, Initial residual = 9.7282725e-06, Final residual = 8.3012136e-07, No Iterations 3
time step continuity errors : sum local = 4.9687932e-13, global = -8.6664893e-15, cumulative = -4.1672579e-08
ExecutionTime = 386.82 s  ClockTime = 390 s

Time = 19.4

Courant Number mean: 0.00033066177 max: 0.059734977
smoothSolver:  Solving for Ux, Initial residual = 0.00012895769, Final residual = 3.0232503e-09, No Iterations 1
smoothSolver:  Solving for Uy, Initial residual = 0.00023019087, Final residual = 7.2013169e-09, No Iterations 1
smoothSolver:  Solving for Uz, Initial residual = 0.00042169833, Final residual = 1.1805693e-08, No Iterations 1
DICPCG:  Solving for p, Initial residual = 0.0024899768, Final residual = 7.3071418e-05, No Iterations 2
DICPCG:  Solving for p, Initial residual = 0.00030150543, Final residual = 1.4667056e-05, No Iterations 8
DICPCG:  Solving for p, Initial residual = 7.4722901e-05, Final residual = 3.6056485e-06, No Iterations 34
time step continuity errors : sum local = 2.1512738e-12, global = 5.2671226e-13, cumulative = -4.1672053e-08
DICPCG:  Solving for p, Initial residual = 3.3242422e-05, Final residual = 1.5851175e-06, No Iterations 150
DICPCG:  Solving for p, Initial residual = 3.9929593e-05, Final residual = 1.8995075e-06, No Iterations 5
DICPCG:  Solving for p, Initial residual = 9.683244e-06, Final residual = 8.5153831e-07, No Iterations 13
time step continuity errors : sum local = 5.0801033e-13, global = -1.4895453e-14, cumulative = -4.1672068e-08
ExecutionTime = 388.54 s  ClockTime = 392 s

Time = 19.5

Courant Number mean: 0.00033066216 max: 0.059737737
smoothSolver:  Solving for Ux, Initial residual = 0.00012854222, Final residual = 2.9953072e-09, No Iterations 1
smoothSolver:  Solving for Uy, Initial residual = 0.00022934148, Final residual = 7.168794e-09, No Iterations 1
smoothSolver:  Solving for Uz, Initial residual = 0.00042018319, Final residual = 1.1748808e-08, No Iterations 1
DICPCG:  Solving for p, Initial residual = 0.0025047372, Final residual = 8.0832379e-05, No Iterations 2
DICPCG:  Solving for p, Initial residual = 0.00031540495, Final residual = 1.4051649e-05, No Iterations 8
DICPCG:  Solving for p, Initial residual = 7.6156559e-05, Final residual = 3.7755274e-06, No Iterations 23
time step continuity errors : sum local = 2.2453468e-12, global = 2.4785021e-13, cumulative = -4.167182e-08
DICPCG:  Solving for p, Initial residual = 3.0194386e-05, Final residual = 1.5075378e-06, No Iterations 186
DICPCG:  Solving for p, Initial residual = 2.9233113e-05, Final residual = 1.1480851e-06, No Iterations 6
DICPCG:  Solving for p, Initial residual = 7.1702816e-06, Final residual = 8.8241879e-07, No Iterations 3
time step continuity errors : sum local = 5.2475142e-13, global = 2.1414011e-15, cumulative = -4.1671818e-08
ExecutionTime = 390.51 s  ClockTime = 394 s

Time = 19.6

Courant Number mean: 0.00033066263 max: 0.059740656
smoothSolver:  Solving for Ux, Initial residual = 0.00012814847, Final residual = 2.9718389e-09, No Iterations 1
smoothSolver:  Solving for Uy, Initial residual = 0.00022847704, Final residual = 7.143038e-09, No Iterations 1
smoothSolver:  Solving for Uz, Initial residual = 0.00041848739, Final residual = 1.1672475e-08, No Iterations 1
DICPCG:  Solving for p, Initial residual = 0.0025015184, Final residual = 0.00011439824, No Iterations 2
DICPCG:  Solving for p, Initial residual = 0.00034461958, Final residual = 1.5895539e-05, No Iterations 9
DICPCG:  Solving for p, Initial residual = 9.6356397e-05, Final residual = 4.7874735e-06, No Iterations 24
time step continuity errors : sum local = 2.8381395e-12, global = 5.9331345e-13, cumulative = -4.1671224e-08
DICPCG:  Solving for p, Initial residual = 4.5261811e-05, Final residual = 2.2228769e-06, No Iterations 163
DICPCG:  Solving for p, Initial residual = 5.2547047e-05, Final residual = 2.3948422e-06, No Iterations 5
DICPCG:  Solving for p, Initial residual = 1.2525687e-05, Final residual = 9.6571766e-07, No Iterations 19
time step continuity errors : sum local = 5.7244428e-13, global = -3.4552843e-15, cumulative = -4.1671228e-08
ExecutionTime = 392.21 s  ClockTime = 396 s

Time = 19.7

Courant Number mean: 0.00033066311 max: 0.059743749
smoothSolver:  Solving for Ux, Initial residual = 0.00012782282, Final residual = 2.946241e-09, No Iterations 1
smoothSolver:  Solving for Uy, Initial residual = 0.00022777594, Final residual = 7.1178573e-09, No Iterations 1
smoothSolver:  Solving for Uz, Initial residual = 0.00041713703, Final residual = 1.1589007e-08, No Iterations 1
DICPCG:  Solving for p, Initial residual = 0.0024179914, Final residual = 7.5913967e-05, No Iterations 2
DICPCG:  Solving for p, Initial residual = 0.0002900411, Final residual = 1.2745877e-05, No Iterations 7
DICPCG:  Solving for p, Initial residual = 7.3453721e-05, Final residual = 3.5652942e-06, No Iterations 199
time step continuity errors : sum local = 2.1068743e-12, global = 8.6014166e-16, cumulative = -4.1671227e-08
DICPCG:  Solving for p, Initial residual = 4.8531772e-05, Final residual = 2.3294702e-06, No Iterations 8
DICPCG:  Solving for p, Initial residual = 1.364511e-05, Final residual = 9.6936426e-07, No Iterations 23
DICPCG:  Solving for p, Initial residual = 6.8461718e-06, Final residual = 9.1531703e-07, No Iterations 2
time step continuity errors : sum local = 5.4082806e-13, global = -7.9538535e-15, cumulative = -4.1671235e-08
ExecutionTime = 393.97 s  ClockTime = 397 s

Time = 19.8

Courant Number mean: 0.00033066362 max: 0.059746996
smoothSolver:  Solving for Ux, Initial residual = 0.00012744814, Final residual = 2.9239702e-09, No Iterations 1
smoothSolver:  Solving for Uy, Initial residual = 0.00022695086, Final residual = 7.0956895e-09, No Iterations 1
smoothSolver:  Solving for Uz, Initial residual = 0.0004155913, Final residual = 1.1508232e-08, No Iterations 1
DICPCG:  Solving for p, Initial residual = 0.0023929877, Final residual = 7.5848974e-05, No Iterations 2
DICPCG:  Solving for p, Initial residual = 0.00028792427, Final residual = 1.3684907e-05, No Iterations 7
DICPCG:  Solving for p, Initial residual = 7.5358045e-05, Final residual = 3.7340689e-06, No Iterations 196
time step continuity errors : sum local = 2.1995306e-12, global = 3.470684e-15, cumulative = -4.1671231e-08
DICPCG:  Solving for p, Initial residual = 5.5441211e-05, Final residual = 2.6663544e-06, No Iterations 8
DICPCG:  Solving for p, Initial residual = 1.5060759e-05, Final residual = 9.5781225e-07, No Iterations 25
DICPCG:  Solving for p, Initial residual = 7.7132434e-06, Final residual = 9.5254364e-07, No Iterations 2
time step continuity errors : sum local = 5.6101038e-13, global = -3.4554874e-15, cumulative = -4.1671235e-08
ExecutionTime = 395.66 s  ClockTime = 399 s

Time = 19.9

Courant Number mean: 0.00033066411 max: 0.059750477
smoothSolver:  Solving for Ux, Initial residual = 0.0001270575, Final residual = 2.9036566e-09, No Iterations 1
smoothSolver:  Solving for Uy, Initial residual = 0.00022614824, Final residual = 7.0743844e-09, No Iterations 1
smoothSolver:  Solving for Uz, Initial residual = 0.00041411262, Final residual = 1.1431495e-08, No Iterations 1
DICPCG:  Solving for p, Initial residual = 0.002413675, Final residual = 6.6153064e-05, No Iterations 2
DICPCG:  Solving for p, Initial residual = 0.00028588592, Final residual = 1.4222058e-05, No Iterations 6
DICPCG:  Solving for p, Initial residual = 7.2024614e-05, Final residual = 3.5684641e-06, No Iterations 194
time step continuity errors : sum local = 2.0954241e-12, global = 2.5016057e-15, cumulative = -4.1671232e-08
DICPCG:  Solving for p, Initial residual = 5.2568209e-05, Final residual = 2.5389595e-06, No Iterations 6
DICPCG:  Solving for p, Initial residual = 1.4168779e-05, Final residual = 9.7665212e-07, No Iterations 24
DICPCG:  Solving for p, Initial residual = 7.5555046e-06, Final residual = 9.6764188e-07, No Iterations 2
time step continuity errors : sum local = 5.6812721e-13, global = -8.224277e-15, cumulative = -4.1671241e-08
ExecutionTime = 397.29 s  ClockTime = 401 s

Time = 20

Courant Number mean: 0.0003306646 max: 0.059754164
smoothSolver:  Solving for Ux, Initial residual = 0.00012668672, Final residual = 2.8876829e-09, No Iterations 1
smoothSolver:  Solving for Uy, Initial residual = 0.00022532991, Final residual = 7.0505484e-09, No Iterations 1
smoothSolver:  Solving for Uz, Initial residual = 0.0004126383, Final residual = 1.1353582e-08, No Iterations 1
DICPCG:  Solving for p, Initial residual = 0.0024296357, Final residual = 6.4189567e-05, No Iterations 2
DICPCG:  Solving for p, Initial residual = 0.00028681188, Final residual = 1.3088073e-05, No Iterations 7
DICPCG:  Solving for p, Initial residual = 7.3259368e-05, Final residual = 3.5836465e-06, No Iterations 196
time step continuity errors : sum local = 2.0979973e-12, global = 3.1851338e-15, cumulative = -4.1671237e-08
DICPCG:  Solving for p, Initial residual = 5.1434553e-05, Final residual = 2.5328559e-06, No Iterations 6
DICPCG:  Solving for p, Initial residual = 1.3832092e-05, Final residual = 9.3002634e-07, No Iterations 24
DICPCG:  Solving for p, Initial residual = 7.2070784e-06, Final residual = 9.417587e-07, No Iterations 2
time step continuity errors : sum local = 5.5126728e-13, global = -7.3110459e-15, cumulative = -4.1671245e-08
ExecutionTime = 399.22 s  ClockTime = 403 s

End

Finalising parallel run
