/*---------------------------------------------------------------------------*\
  =========                 |
  \\      /  F ield         | OpenFOAM: The Open Source CFD Toolbox
   \\    /   O peration     | Website:  https://openfoam.org
    \\  /    A nd           | Version:  8
     \\/     M anipulation  |
\*---------------------------------------------------------------------------*/
Build  : 8-1c9b5879390b
Exec   : transformPoints -scale (0.3048 0.3048 0.3048)
Date   : Dec 30 2021
Time   : 13:17:12
Host   : "pop-os"
PID    : 7463
I/O    : uncollated
Case   : /home/naimishbalaji/Desktop/Mini_Project/CFD-For-Ventilation-Analysis/simulations/icofoam_cases/1_inlet_1_outlet/case
nProcs : 1
sigFpe : Enabling floating point exception trapping (FOAM_SIGFPE).
fileModificationChecking : Monitoring run-time modified files using timeStampMaster (fileModificationSkew 10)
allowSystemOperations : Allowing user-supplied system call operations

// * * * * * * * * * * * * * * * * * * * * * * * * * * * * * * * * * * * * * //
Create time

Scaling points by (0.3048 0.3048 0.3048)
Writing points into directory "/home/naimishbalaji/Desktop/Mini_Project/CFD-For-Ventilation-Analysis/simulations/icofoam_cases/1_inlet_1_outlet/case/constant/polyMesh"

End

