/*---------------------------------------------------------------------------*\
  =========                 |
  \\      /  F ield         | OpenFOAM: The Open Source CFD Toolbox
   \\    /   O peration     | Website:  https://openfoam.org
    \\  /    A nd           | Version:  8
     \\/     M anipulation  |
\*---------------------------------------------------------------------------*/
Build  : 8-1c9b5879390b
Exec   : icoFoam -parallel
Date   : Nov 14 2021
Time   : 10:39:33
Host   : "pop-os"
PID    : 8418
I/O    : uncollated
Case   : /home/naimishbalaji/Desktop/Mini_Project/CFD-For-Ventilation-Analysis/simulations/icofoam_cases/3_wall_5_ceiling/case
nProcs : 2
Slaves : 1("pop-os.8419")
Pstream initialized with:
    floatTransfer      : 0
    nProcsSimpleSum    : 0
    commsType          : nonBlocking
    polling iterations : 0
sigFpe : Enabling floating point exception trapping (FOAM_SIGFPE).
fileModificationChecking : Monitoring run-time modified files using timeStampMaster (fileModificationSkew 10)
allowSystemOperations : Allowing user-supplied system call operations

// * * * * * * * * * * * * * * * * * * * * * * * * * * * * * * * * * * * * * //
Create time

Create mesh for time = 0

Reading transportProperties

Reading field p

Reading field U

Reading/calculating face flux field phi


Starting time loop

Time = 0.1

Courant Number mean: 2.3349776e-06 max: 0.014873142
smoothSolver:  Solving for Ux, Initial residual = 1, Final residual = 1.0210179e-16, No Iterations 1
smoothSolver:  Solving for Uy, Initial residual = 0, Final residual = 0, No Iterations 0
smoothSolver:  Solving for Uz, Initial residual = 1, Final residual = 9.9279789e-17, No Iterations 1
DICPCG:  Solving for p, Initial residual = 1, Final residual = 0.047779251, No Iterations 178
DICPCG:  Solving for p, Initial residual = 0.37350549, Final residual = 0.015299186, No Iterations 4
DICPCG:  Solving for p, Initial residual = 0.062934392, Final residual = 0.0030799554, No Iterations 7
time step continuity errors : sum local = 1.8758433e-06, global = -3.9563219e-08, cumulative = -3.9563219e-08
DICPCG:  Solving for p, Initial residual = 0.016195085, Final residual = 0.00075980709, No Iterations 10
DICPCG:  Solving for p, Initial residual = 0.0056118172, Final residual = 0.00027464297, No Iterations 16
DICPCG:  Solving for p, Initial residual = 0.0023986372, Final residual = 9.7249021e-07, No Iterations 130
time step continuity errors : sum local = 5.9619513e-10, global = -5.7345756e-12, cumulative = -3.9568953e-08
ExecutionTime = 1.03 s  ClockTime = 1 s

Time = 0.2

Courant Number mean: 0.00057726491 max: 0.073874155
smoothSolver:  Solving for Ux, Initial residual = 0.38466897, Final residual = 7.3917011e-06, No Iterations 1
smoothSolver:  Solving for Uy, Initial residual = 0.33290179, Final residual = 4.3734339e-06, No Iterations 1
smoothSolver:  Solving for Uz, Initial residual = 0.31508475, Final residual = 3.6580588e-09, No Iterations 2
DICPCG:  Solving for p, Initial residual = 0.083664953, Final residual = 0.0041297154, No Iterations 145
DICPCG:  Solving for p, Initial residual = 0.61594966, Final residual = 0.025950317, No Iterations 4
DICPCG:  Solving for p, Initial residual = 0.29957651, Final residual = 0.014555513, No Iterations 8
time step continuity errors : sum local = 1.9045361e-06, global = -5.7754821e-09, cumulative = -4.5344435e-08
DICPCG:  Solving for p, Initial residual = 0.10003412, Final residual = 0.0049645984, No Iterations 32
DICPCG:  Solving for p, Initial residual = 0.054829341, Final residual = 0.002649997, No Iterations 19
DICPCG:  Solving for p, Initial residual = 0.019405061, Final residual = 9.3046969e-07, No Iterations 225
time step continuity errors : sum local = 9.5885273e-11, global = 4.1064325e-14, cumulative = -4.5344394e-08
ExecutionTime = 1.99 s  ClockTime = 2 s

Time = 0.3

Courant Number mean: 0.00058370832 max: 0.073483346
smoothSolver:  Solving for Ux, Initial residual = 0.023425661, Final residual = 7.0924365e-07, No Iterations 1
smoothSolver:  Solving for Uy, Initial residual = 0.039647235, Final residual = 9.1883715e-07, No Iterations 1
smoothSolver:  Solving for Uz, Initial residual = 0.035025564, Final residual = 1.1887615e-06, No Iterations 1
DICPCG:  Solving for p, Initial residual = 0.42577823, Final residual = 0.018583522, No Iterations 4
DICPCG:  Solving for p, Initial residual = 0.20647032, Final residual = 0.0094975195, No Iterations 8
DICPCG:  Solving for p, Initial residual = 0.064033687, Final residual = 0.0030684887, No Iterations 15
time step continuity errors : sum local = 1.2933566e-07, global = 1.7103404e-09, cumulative = -4.3634054e-08
DICPCG:  Solving for p, Initial residual = 0.024962146, Final residual = 0.0011627019, No Iterations 16
DICPCG:  Solving for p, Initial residual = 0.010029395, Final residual = 0.00044447037, No Iterations 30
DICPCG:  Solving for p, Initial residual = 0.0054456231, Final residual = 8.9495753e-07, No Iterations 190
time step continuity errors : sum local = 3.7466827e-11, global = -1.0061798e-15, cumulative = -4.3634055e-08
ExecutionTime = 2.68 s  ClockTime = 2 s

Time = 0.4

Courant Number mean: 0.00058422286 max: 0.073529627
smoothSolver:  Solving for Ux, Initial residual = 0.0085158322, Final residual = 3.2150924e-07, No Iterations 1
smoothSolver:  Solving for Uy, Initial residual = 0.013820708, Final residual = 4.2809998e-07, No Iterations 1
smoothSolver:  Solving for Uz, Initial residual = 0.012398318, Final residual = 5.0770415e-07, No Iterations 1
DICPCG:  Solving for p, Initial residual = 0.1942783, Final residual = 0.0082874963, No Iterations 3
DICPCG:  Solving for p, Initial residual = 0.054601756, Final residual = 0.0023936803, No Iterations 15
DICPCG:  Solving for p, Initial residual = 0.016116437, Final residual = 0.00076733694, No Iterations 19
time step continuity errors : sum local = 2.2157437e-08, global = -4.9838615e-09, cumulative = -4.8617916e-08
DICPCG:  Solving for p, Initial residual = 0.0063243243, Final residual = 0.0003110543, No Iterations 107
DICPCG:  Solving for p, Initial residual = 0.003903201, Final residual = 0.00017655652, No Iterations 6
DICPCG:  Solving for p, Initial residual = 0.0010533139, Final residual = 9.7013863e-07, No Iterations 196
time step continuity errors : sum local = 2.7943915e-11, global = -6.1310493e-14, cumulative = -4.8617978e-08
ExecutionTime = 3.55 s  ClockTime = 3 s

Time = 0.5

Courant Number mean: 0.00058431003 max: 0.073610934
smoothSolver:  Solving for Ux, Initial residual = 0.0056842263, Final residual = 2.2519971e-07, No Iterations 1
smoothSolver:  Solving for Uy, Initial residual = 0.0090366165, Final residual = 2.9969755e-07, No Iterations 1
smoothSolver:  Solving for Uz, Initial residual = 0.0080560292, Final residual = 3.3130322e-07, No Iterations 1
DICPCG:  Solving for p, Initial residual = 0.11126118, Final residual = 0.0042765149, No Iterations 3
DICPCG:  Solving for p, Initial residual = 0.025434164, Final residual = 0.0012579456, No Iterations 20
DICPCG:  Solving for p, Initial residual = 0.0074454291, Final residual = 0.00036844916, No Iterations 16
time step continuity errors : sum local = 8.5790488e-09, global = -3.5819387e-09, cumulative = -5.2199916e-08
DICPCG:  Solving for p, Initial residual = 0.0029532059, Final residual = 0.00014736573, No Iterations 115
DICPCG:  Solving for p, Initial residual = 0.0030979681, Final residual = 0.00013434277, No Iterations 5
DICPCG:  Solving for p, Initial residual = 0.00076290919, Final residual = 9.3579409e-07, No Iterations 180
time step continuity errors : sum local = 2.1899582e-11, global = -5.5795617e-14, cumulative = -5.2199972e-08
ExecutionTime = 4.57 s  ClockTime = 4 s

Time = 0.6

Courant Number mean: 0.00058436094 max: 0.073714537
smoothSolver:  Solving for Ux, Initial residual = 0.0045030142, Final residual = 1.8090888e-07, No Iterations 1
smoothSolver:  Solving for Uy, Initial residual = 0.0071010339, Final residual = 2.3930459e-07, No Iterations 1
smoothSolver:  Solving for Uz, Initial residual = 0.0063292761, Final residual = 2.6324736e-07, No Iterations 1
DICPCG:  Solving for p, Initial residual = 0.084954684, Final residual = 0.004043257, No Iterations 2
DICPCG:  Solving for p, Initial residual = 0.018055629, Final residual = 0.00082734133, No Iterations 16
DICPCG:  Solving for p, Initial residual = 0.0051410761, Final residual = 0.00024135953, No Iterations 92
time step continuity errors : sum local = 4.8041402e-09, global = -4.4191862e-12, cumulative = -5.2204391e-08
DICPCG:  Solving for p, Initial residual = 0.0031928225, Final residual = 0.00014738932, No Iterations 6
DICPCG:  Solving for p, Initial residual = 0.00085131152, Final residual = 4.2015967e-05, No Iterations 41
DICPCG:  Solving for p, Initial residual = 0.00059890892, Final residual = 9.7335407e-07, No Iterations 164
time step continuity errors : sum local = 1.9496421e-11, global = 1.7419245e-14, cumulative = -5.2204374e-08
ExecutionTime = 5.35 s  ClockTime = 5 s

Time = 0.7

Courant Number mean: 0.00058438787 max: 0.073815227
smoothSolver:  Solving for Ux, Initial residual = 0.003761846, Final residual = 1.5324287e-07, No Iterations 1
smoothSolver:  Solving for Uy, Initial residual = 0.0058989407, Final residual = 2.025389e-07, No Iterations 1
smoothSolver:  Solving for Uz, Initial residual = 0.005263665, Final residual = 2.2114038e-07, No Iterations 1
DICPCG:  Solving for p, Initial residual = 0.069267836, Final residual = 0.0030296176, No Iterations 2
DICPCG:  Solving for p, Initial residual = 0.013870253, Final residual = 0.00065370147, No Iterations 15
DICPCG:  Solving for p, Initial residual = 0.0037764196, Final residual = 0.00017854018, No Iterations 89
time step continuity errors : sum local = 3.1311062e-09, global = -9.8305447e-12, cumulative = -5.2214205e-08
DICPCG:  Solving for p, Initial residual = 0.0023283636, Final residual = 0.0001066595, No Iterations 6
DICPCG:  Solving for p, Initial residual = 0.00061843795, Final residual = 3.048817e-05, No Iterations 40
DICPCG:  Solving for p, Initial residual = 0.00039342075, Final residual = 9.5524709e-07, No Iterations 159
time step continuity errors : sum local = 1.683061e-11, global = 1.2611855e-14, cumulative = -5.2214192e-08
ExecutionTime = 6.11 s  ClockTime = 6 s

Time = 0.8

Courant Number mean: 0.00058440281 max: 0.073900389
smoothSolver:  Solving for Ux, Initial residual = 0.0032486356, Final residual = 1.3422926e-07, No Iterations 1
smoothSolver:  Solving for Uy, Initial residual = 0.0050730683, Final residual = 1.7772719e-07, No Iterations 1
smoothSolver:  Solving for Uz, Initial residual = 0.0045297418, Final residual = 1.9230745e-07, No Iterations 1
DICPCG:  Solving for p, Initial residual = 0.059026748, Final residual = 0.0024506537, No Iterations 2
DICPCG:  Solving for p, Initial residual = 0.011323898, Final residual = 0.00048328554, No Iterations 15
DICPCG:  Solving for p, Initial residual = 0.0029529567, Final residual = 0.00014425023, No Iterations 110
time step continuity errors : sum local = 2.2691132e-09, global = -2.9302774e-11, cumulative = -5.2243495e-08
DICPCG:  Solving for p, Initial residual = 0.0017761582, Final residual = 7.9709879e-05, No Iterations 6
DICPCG:  Solving for p, Initial residual = 0.0004689591, Final residual = 2.3423592e-05, No Iterations 50
DICPCG:  Solving for p, Initial residual = 0.00030543624, Final residual = 9.5154792e-07, No Iterations 162
time step continuity errors : sum local = 1.5012464e-11, global = -1.8688932e-14, cumulative = -5.2243513e-08
ExecutionTime = 6.92 s  ClockTime = 6 s

Time = 0.9

Courant Number mean: 0.00058440938 max: 0.073968913
smoothSolver:  Solving for Ux, Initial residual = 0.0028688357, Final residual = 1.2086616e-07, No Iterations 1
smoothSolver:  Solving for Uy, Initial residual = 0.0044614, Final residual = 1.5975719e-07, No Iterations 1
smoothSolver:  Solving for Uz, Initial residual = 0.0039854057, Final residual = 1.7176798e-07, No Iterations 1
DICPCG:  Solving for p, Initial residual = 0.051484957, Final residual = 0.0020061833, No Iterations 2
DICPCG:  Solving for p, Initial residual = 0.0094750674, Final residual = 0.00042559049, No Iterations 14
DICPCG:  Solving for p, Initial residual = 0.0024297236, Final residual = 0.00011192521, No Iterations 17
time step continuity errors : sum local = 1.5994433e-09, global = -4.6789994e-10, cumulative = -5.2711413e-08
DICPCG:  Solving for p, Initial residual = 0.0009009896, Final residual = 4.3529413e-05, No Iterations 118
DICPCG:  Solving for p, Initial residual = 0.0008126895, Final residual = 3.9884891e-05, No Iterations 5
DICPCG:  Solving for p, Initial residual = 0.00020164539, Final residual = 9.3767038e-07, No Iterations 91
time step continuity errors : sum local = 1.3423952e-11, global = -2.1194573e-12, cumulative = -5.2713533e-08
ExecutionTime = 7.57 s  ClockTime = 7 s

Time = 1

Courant Number mean: 0.00058441118 max: 0.074025406
smoothSolver:  Solving for Ux, Initial residual = 0.0025745983, Final residual = 1.1060881e-07, No Iterations 1
smoothSolver:  Solving for Uy, Initial residual = 0.0039913784, Final residual = 1.4633762e-07, No Iterations 1
smoothSolver:  Solving for Uz, Initial residual = 0.0035659517, Final residual = 1.5587977e-07, No Iterations 1
DICPCG:  Solving for p, Initial residual = 0.045649363, Final residual = 0.0016916763, No Iterations 2
DICPCG:  Solving for p, Initial residual = 0.0081417974, Final residual = 0.00040441661, No Iterations 8
DICPCG:  Solving for p, Initial residual = 0.00197989, Final residual = 9.5726198e-05, No Iterations 23
time step continuity errors : sum local = 1.2556316e-09, global = -2.7048664e-10, cumulative = -5.2984019e-08
DICPCG:  Solving for p, Initial residual = 0.00080064804, Final residual = 3.9343495e-05, No Iterations 118
DICPCG:  Solving for p, Initial residual = 0.00059681879, Final residual = 2.784197e-05, No Iterations 6
DICPCG:  Solving for p, Initial residual = 0.00015111511, Final residual = 9.8099556e-07, No Iterations 95
time step continuity errors : sum local = 1.2882331e-11, global = -2.1086092e-12, cumulative = -5.2986128e-08
ExecutionTime = 8.42 s  ClockTime = 8 s

Time = 1.1

Courant Number mean: 0.00058440821 max: 0.07407341
smoothSolver:  Solving for Ux, Initial residual = 0.0023402875, Final residual = 1.0308249e-07, No Iterations 1
smoothSolver:  Solving for Uy, Initial residual = 0.0036176903, Final residual = 1.3594703e-07, No Iterations 1
smoothSolver:  Solving for Uz, Initial residual = 0.0032301702, Final residual = 1.433704e-07, No Iterations 1
DICPCG:  Solving for p, Initial residual = 0.04117796, Final residual = 0.0014748617, No Iterations 2
DICPCG:  Solving for p, Initial residual = 0.0071611963, Final residual = 0.00033689605, No Iterations 7
DICPCG:  Solving for p, Initial residual = 0.0016941315, Final residual = 7.8417242e-05, No Iterations 15
time step continuity errors : sum local = 9.5156679e-10, global = -1.7429128e-10, cumulative = -5.3160419e-08
DICPCG:  Solving for p, Initial residual = 0.00061295513, Final residual = 3.0439647e-05, No Iterations 128
DICPCG:  Solving for p, Initial residual = 0.00044675152, Final residual = 2.0953087e-05, No Iterations 5
DICPCG:  Solving for p, Initial residual = 0.00011176619, Final residual = 9.0354039e-07, No Iterations 92
time step continuity errors : sum local = 1.0970519e-11, global = -1.523005e-12, cumulative = -5.3161942e-08
ExecutionTime = 9.06 s  ClockTime = 9 s

Time = 1.2

Courant Number mean: 0.00058440444 max: 0.074112988
smoothSolver:  Solving for Ux, Initial residual = 0.0021475594, Final residual = 9.6607199e-08, No Iterations 1
smoothSolver:  Solving for Uy, Initial residual = 0.0033117226, Final residual = 1.2727175e-07, No Iterations 1
smoothSolver:  Solving for Uz, Initial residual = 0.0029548465, Final residual = 1.3305361e-07, No Iterations 1
DICPCG:  Solving for p, Initial residual = 0.037478289, Final residual = 0.0013043132, No Iterations 2
DICPCG:  Solving for p, Initial residual = 0.0063825767, Final residual = 0.00029601666, No Iterations 6
DICPCG:  Solving for p, Initial residual = 0.0015293961, Final residual = 6.9826002e-05, No Iterations 14
time step continuity errors : sum local = 7.8887839e-10, global = -9.1401725e-11, cumulative = -5.3253344e-08
DICPCG:  Solving for p, Initial residual = 0.00055650966, Final residual = 2.6756468e-05, No Iterations 23
DICPCG:  Solving for p, Initial residual = 0.00023195985, Final residual = 1.1085433e-05, No Iterations 130
DICPCG:  Solving for p, Initial residual = 0.00020518544, Final residual = 9.9139045e-07, No Iterations 155
time step continuity errors : sum local = 1.1201068e-11, global = 5.2443418e-14, cumulative = -5.3253292e-08
ExecutionTime = 9.86 s  ClockTime = 9 s

Time = 1.3

Courant Number mean: 0.00058439949 max: 0.074141697
smoothSolver:  Solving for Ux, Initial residual = 0.001987169, Final residual = 9.0451517e-08, No Iterations 1
smoothSolver:  Solving for Uy, Initial residual = 0.0030593764, Final residual = 1.1934095e-07, No Iterations 1
smoothSolver:  Solving for Uz, Initial residual = 0.0027256948, Final residual = 1.2376971e-07, No Iterations 1
DICPCG:  Solving for p, Initial residual = 0.034495538, Final residual = 0.0011657766, No Iterations 2
DICPCG:  Solving for p, Initial residual = 0.0057662579, Final residual = 0.00025987928, No Iterations 6
DICPCG:  Solving for p, Initial residual = 0.0013680421, Final residual = 5.6039473e-05, No Iterations 15
time step continuity errors : sum local = 5.9256948e-10, global = -3.568595e-11, cumulative = -5.3288978e-08
DICPCG:  Solving for p, Initial residual = 0.00049837698, Final residual = 2.3951296e-05, No Iterations 17
DICPCG:  Solving for p, Initial residual = 0.00019791978, Final residual = 9.8708419e-06, No Iterations 50
DICPCG:  Solving for p, Initial residual = 0.0001272523, Final residual = 9.2076466e-07, No Iterations 149
time step continuity errors : sum local = 9.7326587e-12, global = -1.599848e-14, cumulative = -5.3288994e-08
ExecutionTime = 10.5 s  ClockTime = 10 s

Time = 1.4

Courant Number mean: 0.00058439269 max: 0.074159771
smoothSolver:  Solving for Ux, Initial residual = 0.0018511298, Final residual = 8.5488545e-08, No Iterations 1
smoothSolver:  Solving for Uy, Initial residual = 0.0028457635, Final residual = 1.1289089e-07, No Iterations 1
smoothSolver:  Solving for Uz, Initial residual = 0.0025336988, Final residual = 1.1620081e-07, No Iterations 1
DICPCG:  Solving for p, Initial residual = 0.03196775, Final residual = 0.0010545669, No Iterations 2
DICPCG:  Solving for p, Initial residual = 0.0052355372, Final residual = 0.00024682567, No Iterations 6
DICPCG:  Solving for p, Initial residual = 0.0012491779, Final residual = 6.0526353e-05, No Iterations 19
time step continuity errors : sum local = 6.0170237e-10, global = 2.3771043e-12, cumulative = -5.3286616e-08
DICPCG:  Solving for p, Initial residual = 0.00047836549, Final residual = 2.1412734e-05, No Iterations 16
DICPCG:  Solving for p, Initial residual = 0.00017770906, Final residual = 8.3520967e-06, No Iterations 46
DICPCG:  Solving for p, Initial residual = 0.0001070012, Final residual = 9.6869504e-07, No Iterations 142
time step continuity errors : sum local = 9.6260327e-12, global = -3.0288276e-14, cumulative = -5.3286647e-08
ExecutionTime = 11.12 s  ClockTime = 11 s

Time = 1.5

Courant Number mean: 0.00058438572 max: 0.074166942
smoothSolver:  Solving for Ux, Initial residual = 0.0017341692, Final residual = 8.1384345e-08, No Iterations 1
smoothSolver:  Solving for Uy, Initial residual = 0.0026643054, Final residual = 1.0762022e-07, No Iterations 1
smoothSolver:  Solving for Uz, Initial residual = 0.0023697343, Final residual = 1.0995378e-07, No Iterations 1
DICPCG:  Solving for p, Initial residual = 0.029805441, Final residual = 0.00094550457, No Iterations 2
DICPCG:  Solving for p, Initial residual = 0.0048088922, Final residual = 0.00021455288, No Iterations 7
DICPCG:  Solving for p, Initial residual = 0.0011206048, Final residual = 5.3645304e-05, No Iterations 19
time step continuity errors : sum local = 5.0334489e-10, global = 2.7800516e-11, cumulative = -5.3258846e-08
DICPCG:  Solving for p, Initial residual = 0.00043920132, Final residual = 2.0486324e-05, No Iterations 16
DICPCG:  Solving for p, Initial residual = 0.00016965457, Final residual = 8.4002664e-06, No Iterations 133
DICPCG:  Solving for p, Initial residual = 0.00010564381, Final residual = 9.8282734e-07, No Iterations 43
time step continuity errors : sum local = 9.2160857e-12, global = -8.4095949e-13, cumulative = -5.3259687e-08
ExecutionTime = 11.92 s  ClockTime = 12 s

Time = 1.6

Courant Number mean: 0.00058437914 max: 0.074165125
smoothSolver:  Solving for Ux, Initial residual = 0.0016325477, Final residual = 7.77862e-08, No Iterations 1
smoothSolver:  Solving for Uy, Initial residual = 0.0025057568, Final residual = 1.0291263e-07, No Iterations 1
smoothSolver:  Solving for Uz, Initial residual = 0.0022269164, Final residual = 1.0423291e-07, No Iterations 1
DICPCG:  Solving for p, Initial residual = 0.027851417, Final residual = 0.00088354855, No Iterations 2
DICPCG:  Solving for p, Initial residual = 0.0044503502, Final residual = 0.00021958277, No Iterations 7
DICPCG:  Solving for p, Initial residual = 0.0010470358, Final residual = 5.2163734e-05, No Iterations 20
time step continuity errors : sum local = 4.6364856e-10, global = 4.4161199e-11, cumulative = -5.3215526e-08
DICPCG:  Solving for p, Initial residual = 0.00042508436, Final residual = 1.9641209e-05, No Iterations 17
DICPCG:  Solving for p, Initial residual = 0.00016838548, Final residual = 7.5687053e-06, No Iterations 136
DICPCG:  Solving for p, Initial residual = 0.00012499522, Final residual = 9.9842911e-07, No Iterations 52
time step continuity errors : sum local = 8.8680263e-12, global = -1.754275e-12, cumulative = -5.321728e-08
ExecutionTime = 12.55 s  ClockTime = 12 s

Time = 1.7

Courant Number mean: 0.00058437297 max: 0.074156937
smoothSolver:  Solving for Ux, Initial residual = 0.0015431502, Final residual = 7.4570969e-08, No Iterations 1
smoothSolver:  Solving for Uy, Initial residual = 0.0023667251, Final residual = 9.8926034e-08, No Iterations 1
smoothSolver:  Solving for Uz, Initial residual = 0.002102424, Final residual = 9.9451808e-08, No Iterations 1
DICPCG:  Solving for p, Initial residual = 0.02614972, Final residual = 0.00080796134, No Iterations 2
DICPCG:  Solving for p, Initial residual = 0.0041138479, Final residual = 0.00019335298, No Iterations 8
DICPCG:  Solving for p, Initial residual = 0.00096219738, Final residual = 4.2594351e-05, No Iterations 22
time step continuity errors : sum local = 3.5976984e-10, global = 5.4560303e-11, cumulative = -5.316272e-08
DICPCG:  Solving for p, Initial residual = 0.00040085481, Final residual = 1.9379838e-05, No Iterations 120
DICPCG:  Solving for p, Initial residual = 0.00022251051, Final residual = 1.0857917e-05, No Iterations 16
DICPCG:  Solving for p, Initial residual = 7.6020866e-05, Final residual = 9.980698e-07, No Iterations 79
time step continuity errors : sum local = 8.423094e-12, global = 1.4508295e-12, cumulative = -5.3161269e-08
ExecutionTime = 13.21 s  ClockTime = 13 s

Time = 1.8

Courant Number mean: 0.00058436732 max: 0.074144179
smoothSolver:  Solving for Ux, Initial residual = 0.0014640548, Final residual = 7.1847175e-08, No Iterations 1
smoothSolver:  Solving for Uy, Initial residual = 0.002244227, Final residual = 9.554e-08, No Iterations 1
smoothSolver:  Solving for Uz, Initial residual = 0.0019932567, Final residual = 9.5217552e-08, No Iterations 1
DICPCG:  Solving for p, Initial residual = 0.024659417, Final residual = 0.00075015331, No Iterations 2
DICPCG:  Solving for p, Initial residual = 0.0038328158, Final residual = 0.00017722995, No Iterations 9
DICPCG:  Solving for p, Initial residual = 0.00093206047, Final residual = 4.1647664e-05, No Iterations 23
time step continuity errors : sum local = 3.3525142e-10, global = 6.3127514e-11, cumulative = -5.3098142e-08
DICPCG:  Solving for p, Initial residual = 0.00038187869, Final residual = 1.8237898e-05, No Iterations 117
DICPCG:  Solving for p, Initial residual = 0.00023357757, Final residual = 1.1156591e-05, No Iterations 16
DICPCG:  Solving for p, Initial residual = 7.7506423e-05, Final residual = 9.2651578e-07, No Iterations 79
time step continuity errors : sum local = 7.4511487e-12, global = 1.3175106e-12, cumulative = -5.3096824e-08
ExecutionTime = 13.85 s  ClockTime = 13 s

Time = 1.9

Courant Number mean: 0.00058436123 max: 0.074128319
smoothSolver:  Solving for Ux, Initial residual = 0.0013932428, Final residual = 6.929525e-08, No Iterations 1
smoothSolver:  Solving for Uy, Initial residual = 0.0021351608, Final residual = 9.2367838e-08, No Iterations 1
smoothSolver:  Solving for Uz, Initial residual = 0.0018961767, Final residual = 9.1265383e-08, No Iterations 1
DICPCG:  Solving for p, Initial residual = 0.02335998, Final residual = 0.0007107841, No Iterations 2
DICPCG:  Solving for p, Initial residual = 0.0035930941, Final residual = 0.000152547, No Iterations 15
DICPCG:  Solving for p, Initial residual = 0.00089827495, Final residual = 4.1843324e-05, No Iterations 19
time step continuity errors : sum local = 3.2179293e-10, global = 6.5467367e-11, cumulative = -5.3031357e-08
DICPCG:  Solving for p, Initial residual = 0.00035625, Final residual = 1.7336696e-05, No Iterations 117
DICPCG:  Solving for p, Initial residual = 0.00021851977, Final residual = 9.9632634e-06, No Iterations 6
DICPCG:  Solving for p, Initial residual = 6.0593443e-05, Final residual = 9.8755215e-07, No Iterations 84
time step continuity errors : sum local = 7.5873856e-12, global = 9.1649116e-13, cumulative = -5.303044e-08
ExecutionTime = 14.5 s  ClockTime = 14 s

Time = 2

Courant Number mean: 0.00058435426 max: 0.074109979
smoothSolver:  Solving for Ux, Initial residual = 0.001329725, Final residual = 6.68652e-08, No Iterations 1
smoothSolver:  Solving for Uy, Initial residual = 0.0020375, Final residual = 8.9276235e-08, No Iterations 1
smoothSolver:  Solving for Uz, Initial residual = 0.0018097402, Final residual = 8.7534324e-08, No Iterations 1
DICPCG:  Solving for p, Initial residual = 0.022189219, Final residual = 0.00068214026, No Iterations 2
DICPCG:  Solving for p, Initial residual = 0.0033697096, Final residual = 0.00016178019, No Iterations 15
DICPCG:  Solving for p, Initial residual = 0.0008685077, Final residual = 3.6314966e-05, No Iterations 20
time step continuity errors : sum local = 2.6742679e-10, global = 5.9427366e-11, cumulative = -5.2971013e-08
DICPCG:  Solving for p, Initial residual = 0.00035019835, Final residual = 1.7037898e-05, No Iterations 115
DICPCG:  Solving for p, Initial residual = 0.00021333767, Final residual = 9.383193e-06, No Iterations 6
DICPCG:  Solving for p, Initial residual = 5.9467349e-05, Final residual = 9.4974856e-07, No Iterations 83
time step continuity errors : sum local = 6.987496e-12, global = 7.5077438e-13, cumulative = -5.2970262e-08
ExecutionTime = 15.33 s  ClockTime = 15 s

Time = 2.1

Courant Number mean: 0.00058434698 max: 0.074089892
smoothSolver:  Solving for Ux, Initial residual = 0.0012719228, Final residual = 6.4735924e-08, No Iterations 1
smoothSolver:  Solving for Uy, Initial residual = 0.0019497191, Final residual = 8.6511103e-08, No Iterations 1
smoothSolver:  Solving for Uz, Initial residual = 0.0017319816, Final residual = 8.419609e-08, No Iterations 1
DICPCG:  Solving for p, Initial residual = 0.021174094, Final residual = 0.00062291336, No Iterations 2
DICPCG:  Solving for p, Initial residual = 0.00317104, Final residual = 0.00015242273, No Iterations 15
DICPCG:  Solving for p, Initial residual = 0.00083121937, Final residual = 3.6275002e-05, No Iterations 20
time step continuity errors : sum local = 2.5631532e-10, global = 5.8939833e-11, cumulative = -5.2911322e-08
DICPCG:  Solving for p, Initial residual = 0.00033957154, Final residual = 1.5902152e-05, No Iterations 115
DICPCG:  Solving for p, Initial residual = 0.00021606414, Final residual = 1.0571747e-05, No Iterations 5
DICPCG:  Solving for p, Initial residual = 5.9662229e-05, Final residual = 9.6581805e-07, No Iterations 82
time step continuity errors : sum local = 6.8179373e-12, global = 5.3600221e-13, cumulative = -5.2910786e-08
ExecutionTime = 15.96 s  ClockTime = 16 s

Time = 2.2

Courant Number mean: 0.00058433956 max: 0.07406779
smoothSolver:  Solving for Ux, Initial residual = 0.0012194498, Final residual = 6.2809183e-08, No Iterations 1
smoothSolver:  Solving for Uy, Initial residual = 0.0018702095, Final residual = 8.4000389e-08, No Iterations 1
smoothSolver:  Solving for Uz, Initial residual = 0.0016612231, Final residual = 8.1167258e-08, No Iterations 1
DICPCG:  Solving for p, Initial residual = 0.020231186, Final residual = 0.00059700549, No Iterations 2
DICPCG:  Solving for p, Initial residual = 0.0030079798, Final residual = 0.00013332552, No Iterations 16
DICPCG:  Solving for p, Initial residual = 0.00079712778, Final residual = 3.5741799e-05, No Iterations 20
time step continuity errors : sum local = 2.4279388e-10, global = 5.9017458e-11, cumulative = -5.2851769e-08
DICPCG:  Solving for p, Initial residual = 0.0003253585, Final residual = 1.5877416e-05, No Iterations 115
DICPCG:  Solving for p, Initial residual = 0.00021769652, Final residual = 1.0699967e-05, No Iterations 5
DICPCG:  Solving for p, Initial residual = 6.0216992e-05, Final residual = 9.8122521e-07, No Iterations 83
time step continuity errors : sum local = 6.6590804e-12, global = 5.1561207e-13, cumulative = -5.2851253e-08
ExecutionTime = 16.61 s  ClockTime = 16 s

Time = 2.3

Courant Number mean: 0.00058433178 max: 0.074044201
smoothSolver:  Solving for Ux, Initial residual = 0.0011713643, Final residual = 6.0976109e-08, No Iterations 1
smoothSolver:  Solving for Uy, Initial residual = 0.0017984892, Final residual = 8.1761337e-08, No Iterations 1
smoothSolver:  Solving for Uz, Initial residual = 0.0015966522, Final residual = 7.8301795e-08, No Iterations 1
DICPCG:  Solving for p, Initial residual = 0.019346322, Final residual = 0.00056642289, No Iterations 2
DICPCG:  Solving for p, Initial residual = 0.0028601784, Final residual = 0.00013507729, No Iterations 16
DICPCG:  Solving for p, Initial residual = 0.00076502804, Final residual = 3.656394e-05, No Iterations 20
time step continuity errors : sum local = 2.3921111e-10, global = 6.0589101e-11, cumulative = -5.2790664e-08
DICPCG:  Solving for p, Initial residual = 0.00031995607, Final residual = 1.5067897e-05, No Iterations 115
DICPCG:  Solving for p, Initial residual = 0.00022484518, Final residual = 1.0765463e-05, No Iterations 5
DICPCG:  Solving for p, Initial residual = 6.1100529e-05, Final residual = 9.9509496e-07, No Iterations 82
time step continuity errors : sum local = 6.50378e-12, global = 3.6506555e-13, cumulative = -5.2790299e-08
ExecutionTime = 17.24 s  ClockTime = 17 s

Time = 2.4

Courant Number mean: 0.00058432345 max: 0.074019545
smoothSolver:  Solving for Ux, Initial residual = 0.0011273966, Final residual = 5.9130291e-08, No Iterations 1
smoothSolver:  Solving for Uy, Initial residual = 0.0017327057, Final residual = 7.9470791e-08, No Iterations 1
smoothSolver:  Solving for Uz, Initial residual = 0.0015373241, Final residual = 7.5570526e-08, No Iterations 1
DICPCG:  Solving for p, Initial residual = 0.018554906, Final residual = 0.00055770095, No Iterations 2
DICPCG:  Solving for p, Initial residual = 0.0027222517, Final residual = 0.00013029988, No Iterations 16
DICPCG:  Solving for p, Initial residual = 0.00074457778, Final residual = 3.6122499e-05, No Iterations 20
time step continuity errors : sum local = 2.2797412e-10, global = 5.5185446e-11, cumulative = -5.2735114e-08
DICPCG:  Solving for p, Initial residual = 0.00031311575, Final residual = 1.4798107e-05, No Iterations 114
DICPCG:  Solving for p, Initial residual = 0.00021688074, Final residual = 1.0252729e-05, No Iterations 5
DICPCG:  Solving for p, Initial residual = 5.8972718e-05, Final residual = 9.5202824e-07, No Iterations 83
time step continuity errors : sum local = 6.0027528e-12, global = 3.9755133e-13, cumulative = -5.2734716e-08
ExecutionTime = 17.89 s  ClockTime = 17 s

Time = 2.5

Courant Number mean: 0.00058431554 max: 0.0739939
smoothSolver:  Solving for Ux, Initial residual = 0.0010866343, Final residual = 5.7344599e-08, No Iterations 1
smoothSolver:  Solving for Uy, Initial residual = 0.0016718549, Final residual = 7.7506661e-08, No Iterations 1
smoothSolver:  Solving for Uz, Initial residual = 0.0014828381, Final residual = 7.2891691e-08, No Iterations 1
DICPCG:  Solving for p, Initial residual = 0.017826135, Final residual = 0.00052665615, No Iterations 2
DICPCG:  Solving for p, Initial residual = 0.0026038183, Final residual = 0.00012847483, No Iterations 16
DICPCG:  Solving for p, Initial residual = 0.00071695795, Final residual = 3.324442e-05, No Iterations 21
time step continuity errors : sum local = 2.0269454e-10, global = 6.5460348e-11, cumulative = -5.2669256e-08
DICPCG:  Solving for p, Initial residual = 0.0003103305, Final residual = 1.5065287e-05, No Iterations 116
DICPCG:  Solving for p, Initial residual = 0.00024776315, Final residual = 1.1486076e-05, No Iterations 5
DICPCG:  Solving for p, Initial residual = 6.5993063e-05, Final residual = 9.5058745e-07, No Iterations 83
time step continuity errors : sum local = 5.7896841e-12, global = 2.9787413e-13, cumulative = -5.2668958e-08
ExecutionTime = 18.71 s  ClockTime = 18 s

Time = 2.6

Courant Number mean: 0.00058430761 max: 0.073967067
smoothSolver:  Solving for Ux, Initial residual = 0.001048769, Final residual = 5.558803e-08, No Iterations 1
smoothSolver:  Solving for Uy, Initial residual = 0.0016157133, Final residual = 7.5580584e-08, No Iterations 1
smoothSolver:  Solving for Uz, Initial residual = 0.0014324569, Final residual = 7.0387e-08, No Iterations 1
DICPCG:  Solving for p, Initial residual = 0.017215462, Final residual = 0.00051935263, No Iterations 2
DICPCG:  Solving for p, Initial residual = 0.0025052375, Final residual = 0.00012166756, No Iterations 19
DICPCG:  Solving for p, Initial residual = 0.00069353555, Final residual = 3.4503417e-05, No Iterations 17
time step continuity errors : sum local = 2.0347236e-10, global = 6.4286605e-11, cumulative = -5.2604671e-08
DICPCG:  Solving for p, Initial residual = 0.00027859963, Final residual = 1.3846966e-05, No Iterations 122
DICPCG:  Solving for p, Initial residual = 0.00024261353, Final residual = 1.0162338e-05, No Iterations 5
DICPCG:  Solving for p, Initial residual = 6.3708984e-05, Final residual = 9.6982721e-07, No Iterations 79
time step continuity errors : sum local = 5.7132917e-12, global = 2.3676093e-13, cumulative = -5.2604434e-08
ExecutionTime = 19.35 s  ClockTime = 19 s

Time = 2.7

Courant Number mean: 0.00058430003 max: 0.073939709
smoothSolver:  Solving for Ux, Initial residual = 0.0010135365, Final residual = 5.4011285e-08, No Iterations 1
smoothSolver:  Solving for Uy, Initial residual = 0.001563954, Final residual = 7.3838565e-08, No Iterations 1
smoothSolver:  Solving for Uz, Initial residual = 0.0013856404, Final residual = 6.8266411e-08, No Iterations 1
DICPCG:  Solving for p, Initial residual = 0.016606786, Final residual = 0.0004833218, No Iterations 2
DICPCG:  Solving for p, Initial residual = 0.0023897262, Final residual = 0.0001065272, No Iterations 20
DICPCG:  Solving for p, Initial residual = 0.00067881218, Final residual = 3.3239536e-05, No Iterations 16
time step continuity errors : sum local = 1.8983173e-10, global = 6.5945799e-11, cumulative = -5.2538489e-08
DICPCG:  Solving for p, Initial residual = 0.00026846469, Final residual = 1.2991956e-05, No Iterations 121
DICPCG:  Solving for p, Initial residual = 0.00025188461, Final residual = 1.0286493e-05, No Iterations 5
DICPCG:  Solving for p, Initial residual = 6.5708567e-05, Final residual = 9.5885674e-07, No Iterations 59
time step continuity errors : sum local = 5.4701674e-12, global = 1.2891656e-13, cumulative = -5.253836e-08
ExecutionTime = 19.96 s  ClockTime = 20 s

Time = 2.8

Courant Number mean: 0.00058429293 max: 0.07391218
smoothSolver:  Solving for Ux, Initial residual = 0.00098067444, Final residual = 5.2607423e-08, No Iterations 1
smoothSolver:  Solving for Uy, Initial residual = 0.0015159606, Final residual = 7.2057658e-08, No Iterations 1
smoothSolver:  Solving for Uz, Initial residual = 0.0013418346, Final residual = 6.6238664e-08, No Iterations 1
DICPCG:  Solving for p, Initial residual = 0.016133954, Final residual = 0.00046693069, No Iterations 2
DICPCG:  Solving for p, Initial residual = 0.0023127857, Final residual = 0.00010551527, No Iterations 20
DICPCG:  Solving for p, Initial residual = 0.00067706164, Final residual = 3.2993056e-05, No Iterations 16
time step continuity errors : sum local = 1.8264627e-10, global = 6.6589042e-11, cumulative = -5.2471771e-08
DICPCG:  Solving for p, Initial residual = 0.0002708174, Final residual = 1.3468578e-05, No Iterations 120
DICPCG:  Solving for p, Initial residual = 0.00026092049, Final residual = 1.2862203e-05, No Iterations 4
DICPCG:  Solving for p, Initial residual = 6.7412511e-05, Final residual = 9.6710188e-07, No Iterations 69
time step continuity errors : sum local = 5.3479322e-12, global = 1.3292517e-13, cumulative = -5.2471638e-08
ExecutionTime = 20.58 s  ClockTime = 20 s

Time = 2.9

Courant Number mean: 0.00058428622 max: 0.073884729
smoothSolver:  Solving for Ux, Initial residual = 0.00095026672, Final residual = 5.1152868e-08, No Iterations 1
smoothSolver:  Solving for Uy, Initial residual = 0.0014712066, Final residual = 7.0351314e-08, No Iterations 1
smoothSolver:  Solving for Uz, Initial residual = 0.0013015254, Final residual = 6.4383831e-08, No Iterations 1
DICPCG:  Solving for p, Initial residual = 0.015503404, Final residual = 0.00045675968, No Iterations 2
DICPCG:  Solving for p, Initial residual = 0.0022177522, Final residual = 0.00010569073, No Iterations 20
DICPCG:  Solving for p, Initial residual = 0.00064452061, Final residual = 3.1418152e-05, No Iterations 17
time step continuity errors : sum local = 1.6883863e-10, global = 5.9617795e-11, cumulative = -5.241202e-08
DICPCG:  Solving for p, Initial residual = 0.00026365836, Final residual = 1.2957656e-05, No Iterations 119
DICPCG:  Solving for p, Initial residual = 0.00024706862, Final residual = 1.0201981e-05, No Iterations 5
DICPCG:  Solving for p, Initial residual = 6.455792e-05, Final residual = 9.9716169e-07, No Iterations 57
time step continuity errors : sum local = 5.3532049e-12, global = 1.2336048e-13, cumulative = -5.2411897e-08
ExecutionTime = 21.18 s  ClockTime = 21 s

Time = 3

Courant Number mean: 0.00058428002 max: 0.073860668
smoothSolver:  Solving for Ux, Initial residual = 0.00092211138, Final residual = 4.9984017e-08, No Iterations 1
smoothSolver:  Solving for Uy, Initial residual = 0.0014294282, Final residual = 6.8972021e-08, No Iterations 1
smoothSolver:  Solving for Uz, Initial residual = 0.0012637561, Final residual = 6.2682322e-08, No Iterations 1
DICPCG:  Solving for p, Initial residual = 0.014973146, Final residual = 0.00043707213, No Iterations 2
DICPCG:  Solving for p, Initial residual = 0.0021172337, Final residual = 9.8789727e-05, No Iterations 21
DICPCG:  Solving for p, Initial residual = 0.00063118873, Final residual = 2.9545569e-05, No Iterations 16
time step continuity errors : sum local = 1.5430714e-10, global = 5.6562378e-11, cumulative = -5.2355334e-08
DICPCG:  Solving for p, Initial residual = 0.00025333259, Final residual = 1.2223044e-05, No Iterations 121
DICPCG:  Solving for p, Initial residual = 0.00024344012, Final residual = 1.205574e-05, No Iterations 4
DICPCG:  Solving for p, Initial residual = 6.2950974e-05, Final residual = 9.8459413e-07, No Iterations 73
time step continuity errors : sum local = 5.1371313e-12, global = 1.3442082e-13, cumulative = -5.23552e-08
ExecutionTime = 21.99 s  ClockTime = 22 s

Time = 3.1

Courant Number mean: 0.00058427407 max: 0.073919647
smoothSolver:  Solving for Ux, Initial residual = 0.00089583456, Final residual = 4.8584248e-08, No Iterations 1
smoothSolver:  Solving for Uy, Initial residual = 0.0013902103, Final residual = 6.7763073e-08, No Iterations 1
smoothSolver:  Solving for Uz, Initial residual = 0.0012282207, Final residual = 6.0952556e-08, No Iterations 1
DICPCG:  Solving for p, Initial residual = 0.014414388, Final residual = 0.00043388216, No Iterations 2
DICPCG:  Solving for p, Initial residual = 0.0020267475, Final residual = 9.7989827e-05, No Iterations 21
DICPCG:  Solving for p, Initial residual = 0.00061277931, Final residual = 2.9349982e-05, No Iterations 16
time step continuity errors : sum local = 1.4915296e-10, global = 5.6417745e-11, cumulative = -5.2298782e-08
DICPCG:  Solving for p, Initial residual = 0.00024753188, Final residual = 1.2101002e-05, No Iterations 120
DICPCG:  Solving for p, Initial residual = 0.00024649263, Final residual = 1.2091635e-05, No Iterations 4
DICPCG:  Solving for p, Initial residual = 6.3345112e-05, Final residual = 9.9750134e-07, No Iterations 55
time step continuity errors : sum local = 5.064117e-12, global = 3.5615797e-14, cumulative = -5.2298746e-08
ExecutionTime = 22.59 s  ClockTime = 22 s

Time = 3.2

Courant Number mean: 0.00058426791 max: 0.073976777
smoothSolver:  Solving for Ux, Initial residual = 0.0008712382, Final residual = 4.7355141e-08, No Iterations 1
smoothSolver:  Solving for Uy, Initial residual = 0.0013533594, Final residual = 6.6584021e-08, No Iterations 1
smoothSolver:  Solving for Uz, Initial residual = 0.0011951034, Final residual = 5.9377869e-08, No Iterations 1
DICPCG:  Solving for p, Initial residual = 0.014002744, Final residual = 0.00041955592, No Iterations 2
DICPCG:  Solving for p, Initial residual = 0.0019703906, Final residual = 9.6360346e-05, No Iterations 21
DICPCG:  Solving for p, Initial residual = 0.00060492901, Final residual = 2.9523854e-05, No Iterations 16
time step continuity errors : sum local = 1.4610776e-10, global = 5.7422561e-11, cumulative = -5.2241324e-08
DICPCG:  Solving for p, Initial residual = 0.00024582508, Final residual = 1.2056765e-05, No Iterations 119
DICPCG:  Solving for p, Initial residual = 0.00025328431, Final residual = 1.0170457e-05, No Iterations 5
DICPCG:  Solving for p, Initial residual = 6.5614175e-05, Final residual = 9.8919018e-07, No Iterations 55
time step continuity errors : sum local = 4.8902917e-12, global = 5.9058115e-14, cumulative = -5.2241265e-08
ExecutionTime = 23.19 s  ClockTime = 23 s

Time = 3.3

Courant Number mean: 0.00058426171 max: 0.074032313
smoothSolver:  Solving for Ux, Initial residual = 0.00084816054, Final residual = 4.6106203e-08, No Iterations 1
smoothSolver:  Solving for Uy, Initial residual = 0.0013185391, Final residual = 6.5313994e-08, No Iterations 1
smoothSolver:  Solving for Uz, Initial residual = 0.0011641204, Final residual = 5.7890461e-08, No Iterations 1
DICPCG:  Solving for p, Initial residual = 0.013566504, Final residual = 0.00041837916, No Iterations 2
DICPCG:  Solving for p, Initial residual = 0.0018968323, Final residual = 8.7794265e-05, No Iterations 22
DICPCG:  Solving for p, Initial residual = 0.00059174842, Final residual = 2.8461798e-05, No Iterations 16
time step continuity errors : sum local = 1.3728044e-10, global = 5.3665134e-11, cumulative = -5.21876e-08
DICPCG:  Solving for p, Initial residual = 0.00024038193, Final residual = 1.1493277e-05, No Iterations 119
DICPCG:  Solving for p, Initial residual = 0.00024914364, Final residual = 1.2276056e-05, No Iterations 4
DICPCG:  Solving for p, Initial residual = 6.3641951e-05, Final residual = 9.394502e-07, No Iterations 47
time step continuity errors : sum local = 4.5267681e-12, global = 3.9512158e-14, cumulative = -5.218756e-08
ExecutionTime = 23.77 s  ClockTime = 23 s

Time = 3.4

Courant Number mean: 0.00058425543 max: 0.074086915
smoothSolver:  Solving for Ux, Initial residual = 0.00082642329, Final residual = 4.4971675e-08, No Iterations 1
smoothSolver:  Solving for Uy, Initial residual = 0.0012855424, Final residual = 6.4182991e-08, No Iterations 1
smoothSolver:  Solving for Uz, Initial residual = 0.0011349528, Final residual = 5.6657823e-08, No Iterations 1
DICPCG:  Solving for p, Initial residual = 0.01311654, Final residual = 0.00041115862, No Iterations 2
DICPCG:  Solving for p, Initial residual = 0.00182125, Final residual = 8.6027785e-05, No Iterations 22
DICPCG:  Solving for p, Initial residual = 0.00057127817, Final residual = 2.8036661e-05, No Iterations 16
time step continuity errors : sum local = 1.3193442e-10, global = 5.2476516e-11, cumulative = -5.2135084e-08
DICPCG:  Solving for p, Initial residual = 0.00023267185, Final residual = 1.1279799e-05, No Iterations 119
DICPCG:  Solving for p, Initial residual = 0.00024667289, Final residual = 9.9175447e-06, No Iterations 5
DICPCG:  Solving for p, Initial residual = 6.3645582e-05, Final residual = 9.7692233e-07, No Iterations 47
time step continuity errors : sum local = 4.5926467e-12, global = 3.3145665e-14, cumulative = -5.2135051e-08
ExecutionTime = 24.36 s  ClockTime = 24 s

Time = 3.5

Courant Number mean: 0.00058424923 max: 0.074140235
smoothSolver:  Solving for Ux, Initial residual = 0.00080584189, Final residual = 4.3748e-08, No Iterations 1
smoothSolver:  Solving for Uy, Initial residual = 0.0012543242, Final residual = 6.3239954e-08, No Iterations 1
smoothSolver:  Solving for Uz, Initial residual = 0.0011070809, Final residual = 5.5308971e-08, No Iterations 1
DICPCG:  Solving for p, Initial residual = 0.012821478, Final residual = 0.00041076239, No Iterations 2
DICPCG:  Solving for p, Initial residual = 0.0017864832, Final residual = 8.7425316e-05, No Iterations 22
DICPCG:  Solving for p, Initial residual = 0.00057654818, Final residual = 2.7200299e-05, No Iterations 16
time step continuity errors : sum local = 1.2495243e-10, global = 4.9546919e-11, cumulative = -5.2085504e-08
DICPCG:  Solving for p, Initial residual = 0.0002344466, Final residual = 1.0818234e-05, No Iterations 119
DICPCG:  Solving for p, Initial residual = 0.00024257434, Final residual = 1.1851968e-05, No Iterations 4
DICPCG:  Solving for p, Initial residual = 6.1847155e-05, Final residual = 9.0841776e-07, No Iterations 47
time step continuity errors : sum local = 4.1690824e-12, global = 1.5221161e-14, cumulative = -5.2085488e-08
ExecutionTime = 25.12 s  ClockTime = 25 s

Time = 3.6

Courant Number mean: 0.00058424276 max: 0.074192276
smoothSolver:  Solving for Ux, Initial residual = 0.00078624757, Final residual = 4.27294e-08, No Iterations 1
smoothSolver:  Solving for Uy, Initial residual = 0.0012248958, Final residual = 6.214812e-08, No Iterations 1
smoothSolver:  Solving for Uz, Initial residual = 0.0010808959, Final residual = 5.4028227e-08, No Iterations 1
DICPCG:  Solving for p, Initial residual = 0.012441487, Final residual = 0.00040062503, No Iterations 2
DICPCG:  Solving for p, Initial residual = 0.0017262186, Final residual = 7.8715409e-05, No Iterations 23
DICPCG:  Solving for p, Initial residual = 0.0005556245, Final residual = 2.6391287e-05, No Iterations 16
time step continuity errors : sum local = 1.1845162e-10, global = 4.7755813e-11, cumulative = -5.2037733e-08
DICPCG:  Solving for p, Initial residual = 0.00022599891, Final residual = 1.0377527e-05, No Iterations 119
DICPCG:  Solving for p, Initial residual = 0.00023981644, Final residual = 1.1899357e-05, No Iterations 4
DICPCG:  Solving for p, Initial residual = 6.1036102e-05, Final residual = 9.4674956e-07, No Iterations 45
time step continuity errors : sum local = 4.245305e-12, global = 1.0140319e-14, cumulative = -5.2037722e-08
ExecutionTime = 25.71 s  ClockTime = 25 s

Time = 3.7

Courant Number mean: 0.00058423617 max: 0.074243331
smoothSolver:  Solving for Ux, Initial residual = 0.00076769124, Final residual = 4.1725026e-08, No Iterations 1
smoothSolver:  Solving for Uy, Initial residual = 0.0011969272, Final residual = 6.0963007e-08, No Iterations 1
smoothSolver:  Solving for Uz, Initial residual = 0.0010560969, Final residual = 5.2778943e-08, No Iterations 1
DICPCG:  Solving for p, Initial residual = 0.012093327, Final residual = 0.0003970234, No Iterations 2
DICPCG:  Solving for p, Initial residual = 0.0016776268, Final residual = 7.7035791e-05, No Iterations 23
DICPCG:  Solving for p, Initial residual = 0.00054127452, Final residual = 2.6380291e-05, No Iterations 16
time step continuity errors : sum local = 1.1578165e-10, global = 4.7121605e-11, cumulative = -5.1990601e-08
DICPCG:  Solving for p, Initial residual = 0.00022134893, Final residual = 1.0518327e-05, No Iterations 119
DICPCG:  Solving for p, Initial residual = 0.00023948943, Final residual = 1.1907547e-05, No Iterations 4
DICPCG:  Solving for p, Initial residual = 6.0895495e-05, Final residual = 9.3287646e-07, No Iterations 45
time step continuity errors : sum local = 4.0905244e-12, global = 1.4218975e-14, cumulative = -5.1990587e-08
ExecutionTime = 26.29 s  ClockTime = 26 s

Time = 3.8

Courant Number mean: 0.00058422954 max: 0.074293512
smoothSolver:  Solving for Ux, Initial residual = 0.00075013546, Final residual = 4.0750597e-08, No Iterations 1
smoothSolver:  Solving for Uy, Initial residual = 0.0011704035, Final residual = 5.9858157e-08, No Iterations 1
smoothSolver:  Solving for Uz, Initial residual = 0.001032507, Final residual = 5.1710289e-08, No Iterations 1
DICPCG:  Solving for p, Initial residual = 0.011714277, Final residual = 0.00038964625, No Iterations 2
DICPCG:  Solving for p, Initial residual = 0.0016285673, Final residual = 7.8979459e-05, No Iterations 23
DICPCG:  Solving for p, Initial residual = 0.00054393982, Final residual = 2.6399826e-05, No Iterations 16
time step continuity errors : sum local = 1.1338682e-10, global = 4.547345e-11, cumulative = -5.1945113e-08
DICPCG:  Solving for p, Initial residual = 0.00022502235, Final residual = 1.0900612e-05, No Iterations 119
DICPCG:  Solving for p, Initial residual = 0.00023934301, Final residual = 9.7295476e-06, No Iterations 5
DICPCG:  Solving for p, Initial residual = 6.147486e-05, Final residual = 9.5204299e-07, No Iterations 45
time step continuity errors : sum local = 4.0852568e-12, global = 4.2573671e-14, cumulative = -5.1945071e-08
ExecutionTime = 26.88 s  ClockTime = 27 s

Time = 3.9

Courant Number mean: 0.00058422294 max: 0.074342871
smoothSolver:  Solving for Ux, Initial residual = 0.0007335975, Final residual = 3.9809809e-08, No Iterations 1
smoothSolver:  Solving for Uy, Initial residual = 0.0011454951, Final residual = 5.8872831e-08, No Iterations 1
smoothSolver:  Solving for Uz, Initial residual = 0.0010100449, Final residual = 5.0698662e-08, No Iterations 1
DICPCG:  Solving for p, Initial residual = 0.011384906, Final residual = 0.00037742298, No Iterations 2
DICPCG:  Solving for p, Initial residual = 0.0015796072, Final residual = 7.6766283e-05, No Iterations 23
DICPCG:  Solving for p, Initial residual = 0.00052982175, Final residual = 2.5604117e-05, No Iterations 16
time step continuity errors : sum local = 1.0769106e-10, global = 4.3644915e-11, cumulative = -5.1901426e-08
DICPCG:  Solving for p, Initial residual = 0.00021957524, Final residual = 1.0451915e-05, No Iterations 119
DICPCG:  Solving for p, Initial residual = 0.0002338861, Final residual = 9.4395533e-06, No Iterations 5
DICPCG:  Solving for p, Initial residual = 5.9995729e-05, Final residual = 9.849448e-07, No Iterations 44
time step continuity errors : sum local = 4.1389669e-12, global = 7.873544e-15, cumulative = -5.1901418e-08
ExecutionTime = 27.46 s  ClockTime = 27 s

Time = 4

Courant Number mean: 0.00058421631 max: 0.074391548
smoothSolver:  Solving for Ux, Initial residual = 0.00071784292, Final residual = 3.8929205e-08, No Iterations 1
smoothSolver:  Solving for Uy, Initial residual = 0.0011218992, Final residual = 5.786101e-08, No Iterations 1
smoothSolver:  Solving for Uz, Initial residual = 0.00098864693, Final residual = 4.9713312e-08, No Iterations 1
DICPCG:  Solving for p, Initial residual = 0.011118974, Final residual = 0.00038338239, No Iterations 2
DICPCG:  Solving for p, Initial residual = 0.0015493902, Final residual = 7.6622735e-05, No Iterations 23
DICPCG:  Solving for p, Initial residual = 0.00052675389, Final residual = 2.5785441e-05, No Iterations 16
time step continuity errors : sum local = 1.0626798e-10, global = 4.3145164e-11, cumulative = -5.1858273e-08
DICPCG:  Solving for p, Initial residual = 0.00021840193, Final residual = 1.0352507e-05, No Iterations 119
DICPCG:  Solving for p, Initial residual = 0.00023328417, Final residual = 9.4536523e-06, No Iterations 5
DICPCG:  Solving for p, Initial residual = 5.9933242e-05, Final residual = 9.4082947e-07, No Iterations 45
time step continuity errors : sum local = 3.8739133e-12, global = 2.6156438e-14, cumulative = -5.1858246e-08
ExecutionTime = 28.23 s  ClockTime = 28 s

Time = 4.1

Courant Number mean: 0.0005842097 max: 0.074439509
smoothSolver:  Solving for Ux, Initial residual = 0.0007027962, Final residual = 3.8049017e-08, No Iterations 1
smoothSolver:  Solving for Uy, Initial residual = 0.0010993067, Final residual = 5.6890336e-08, No Iterations 1
smoothSolver:  Solving for Uz, Initial residual = 0.00096847558, Final residual = 4.8684422e-08, No Iterations 1
DICPCG:  Solving for p, Initial residual = 0.010846545, Final residual = 0.00038742401, No Iterations 2
DICPCG:  Solving for p, Initial residual = 0.0015077857, Final residual = 7.1557239e-05, No Iterations 24
DICPCG:  Solving for p, Initial residual = 0.00051121206, Final residual = 2.3913518e-05, No Iterations 17
time step continuity errors : sum local = 9.6623683e-11, global = 4.0505713e-11, cumulative = -5.1817741e-08
DICPCG:  Solving for p, Initial residual = 0.0002085958, Final residual = 9.6705066e-06, No Iterations 120
DICPCG:  Solving for p, Initial residual = 0.00022395245, Final residual = 1.1165554e-05, No Iterations 4
DICPCG:  Solving for p, Initial residual = 5.6908045e-05, Final residual = 9.4246119e-07, No Iterations 45
time step continuity errors : sum local = 3.8048065e-12, global = 9.2995484e-15, cumulative = -5.1817731e-08
ExecutionTime = 28.82 s  ClockTime = 28 s

Time = 4.2

Courant Number mean: 0.00058420331 max: 0.074486839
smoothSolver:  Solving for Ux, Initial residual = 0.00068852106, Final residual = 3.7189061e-08, No Iterations 1
smoothSolver:  Solving for Uy, Initial residual = 0.0010775855, Final residual = 5.5830458e-08, No Iterations 1
smoothSolver:  Solving for Uz, Initial residual = 0.00094918294, Final residual = 4.7645154e-08, No Iterations 1
DICPCG:  Solving for p, Initial residual = 0.010584981, Final residual = 0.00037942697, No Iterations 2
DICPCG:  Solving for p, Initial residual = 0.0014699384, Final residual = 7.1343652e-05, No Iterations 24
DICPCG:  Solving for p, Initial residual = 0.00050715334, Final residual = 2.531083e-05, No Iterations 16
time step continuity errors : sum local = 1.0032544e-10, global = 3.8037053e-11, cumulative = -5.1779694e-08
DICPCG:  Solving for p, Initial residual = 0.00020945693, Final residual = 1.0027014e-05, No Iterations 119
DICPCG:  Solving for p, Initial residual = 0.00021805202, Final residual = 8.8562409e-06, No Iterations 5
DICPCG:  Solving for p, Initial residual = 5.6249271e-05, Final residual = 9.7500178e-07, No Iterations 40
time step continuity errors : sum local = 3.8614969e-12, global = -2.7895996e-14, cumulative = -5.1779722e-08
ExecutionTime = 29.4 s  ClockTime = 29 s

Time = 4.3

Courant Number mean: 0.00058419735 max: 0.074533725
smoothSolver:  Solving for Ux, Initial residual = 0.00067487926, Final residual = 3.632172e-08, No Iterations 1
smoothSolver:  Solving for Uy, Initial residual = 0.0010569018, Final residual = 5.477507e-08, No Iterations 1
smoothSolver:  Solving for Uz, Initial residual = 0.00093090689, Final residual = 4.6733143e-08, No Iterations 1
DICPCG:  Solving for p, Initial residual = 0.010347426, Final residual = 0.00038008316, No Iterations 2
DICPCG:  Solving for p, Initial residual = 0.0014407663, Final residual = 7.0413892e-05, No Iterations 24
DICPCG:  Solving for p, Initial residual = 0.00050130035, Final residual = 2.4384935e-05, No Iterations 16
time step continuity errors : sum local = 9.4876022e-11, global = 3.5396325e-11, cumulative = -5.1744326e-08
DICPCG:  Solving for p, Initial residual = 0.00020744412, Final residual = 9.57187e-06, No Iterations 119
DICPCG:  Solving for p, Initial residual = 0.00021077134, Final residual = 1.0487805e-05, No Iterations 4
DICPCG:  Solving for p, Initial residual = 5.3715731e-05, Final residual = 9.6674115e-07, No Iterations 45
time step continuity errors : sum local = 3.7584274e-12, global = -1.5602819e-14, cumulative = -5.1744342e-08
ExecutionTime = 29.98 s  ClockTime = 30 s

Time = 4.4

Courant Number mean: 0.00058419131 max: 0.074580019
smoothSolver:  Solving for Ux, Initial residual = 0.00066175711, Final residual = 3.5468426e-08, No Iterations 1
smoothSolver:  Solving for Uy, Initial residual = 0.001037191, Final residual = 5.3769464e-08, No Iterations 1
smoothSolver:  Solving for Uz, Initial residual = 0.00091350666, Final residual = 4.5813996e-08, No Iterations 1
DICPCG:  Solving for p, Initial residual = 0.010065584, Final residual = 0.0003682092, No Iterations 2
DICPCG:  Solving for p, Initial residual = 0.001398604, Final residual = 6.9180318e-05, No Iterations 24
DICPCG:  Solving for p, Initial residual = 0.00049399182, Final residual = 2.3930081e-05, No Iterations 16
time step continuity errors : sum local = 9.1443053e-11, global = 3.5038153e-11, cumulative = -5.1709303e-08
DICPCG:  Solving for p, Initial residual = 0.00020501555, Final residual = 9.5089654e-06, No Iterations 119
DICPCG:  Solving for p, Initial residual = 0.00021036447, Final residual = 1.0513949e-05, No Iterations 4
DICPCG:  Solving for p, Initial residual = 5.373442e-05, Final residual = 9.9796661e-07, No Iterations 43
time step continuity errors : sum local = 3.8105408e-12, global = -4.5438575e-14, cumulative = -5.1709349e-08
ExecutionTime = 30.57 s  ClockTime = 30 s

Time = 4.5

Courant Number mean: 0.00058418535 max: 0.074625768
smoothSolver:  Solving for Ux, Initial residual = 0.00064921909, Final residual = 3.4386062e-08, No Iterations 1
smoothSolver:  Solving for Uy, Initial residual = 0.001018464, Final residual = 5.2739677e-08, No Iterations 1
smoothSolver:  Solving for Uz, Initial residual = 0.00089688886, Final residual = 4.488765e-08, No Iterations 1
DICPCG:  Solving for p, Initial residual = 0.0099187062, Final residual = 0.00035999123, No Iterations 2
DICPCG:  Solving for p, Initial residual = 0.0013786031, Final residual = 6.8190143e-05, No Iterations 24
DICPCG:  Solving for p, Initial residual = 0.00048702979, Final residual = 2.428658e-05, No Iterations 15
time step continuity errors : sum local = 9.1183657e-11, global = 3.4370985e-11, cumulative = -5.1674978e-08
DICPCG:  Solving for p, Initial residual = 0.00020196993, Final residual = 1.0042523e-05, No Iterations 118
DICPCG:  Solving for p, Initial residual = 0.00020767446, Final residual = 8.5598874e-06, No Iterations 5
DICPCG:  Solving for p, Initial residual = 5.384737e-05, Final residual = 9.5259129e-07, No Iterations 46
time step continuity errors : sum local = 3.5737902e-12, global = -5.0440173e-16, cumulative = -5.1674978e-08
ExecutionTime = 31.34 s  ClockTime = 31 s

Time = 4.6

Courant Number mean: 0.00058417938 max: 0.074670979
smoothSolver:  Solving for Ux, Initial residual = 0.00063708927, Final residual = 3.3496793e-08, No Iterations 1
smoothSolver:  Solving for Uy, Initial residual = 0.0010004327, Final residual = 5.1729268e-08, No Iterations 1
smoothSolver:  Solving for Uz, Initial residual = 0.00088106037, Final residual = 4.3910273e-08, No Iterations 1
DICPCG:  Solving for p, Initial residual = 0.0096674926, Final residual = 0.00036707617, No Iterations 2
DICPCG:  Solving for p, Initial residual = 0.0013582806, Final residual = 6.6373924e-05, No Iterations 24
DICPCG:  Solving for p, Initial residual = 0.00047915741, Final residual = 2.2676441e-05, No Iterations 15
time step continuity errors : sum local = 8.3693817e-11, global = 3.0268158e-11, cumulative = -5.164471e-08
DICPCG:  Solving for p, Initial residual = 0.00019925614, Final residual = 9.64884e-06, No Iterations 115
DICPCG:  Solving for p, Initial residual = 0.00019127542, Final residual = 9.4313192e-06, No Iterations 4
DICPCG:  Solving for p, Initial residual = 4.9276382e-05, Final residual = 9.7401918e-07, No Iterations 64
time step continuity errors : sum local = 3.5924115e-12, global = 1.626333e-14, cumulative = -5.1644694e-08
ExecutionTime = 31.96 s  ClockTime = 32 s

Time = 4.7

Courant Number mean: 0.00058417338 max: 0.07471565
smoothSolver:  Solving for Ux, Initial residual = 0.00062569032, Final residual = 3.2706258e-08, No Iterations 1
smoothSolver:  Solving for Uy, Initial residual = 0.00098318638, Final residual = 5.0885324e-08, No Iterations 1
smoothSolver:  Solving for Uz, Initial residual = 0.00086594039, Final residual = 4.3168036e-08, No Iterations 1
DICPCG:  Solving for p, Initial residual = 0.0094360763, Final residual = 0.00035895872, No Iterations 2
DICPCG:  Solving for p, Initial residual = 0.0013187726, Final residual = 6.4616724e-05, No Iterations 25
DICPCG:  Solving for p, Initial residual = 0.00046987579, Final residual = 2.3022367e-05, No Iterations 15
time step continuity errors : sum local = 8.3575367e-11, global = 3.0592288e-11, cumulative = -5.1614102e-08
DICPCG:  Solving for p, Initial residual = 0.00019278285, Final residual = 9.1386126e-06, No Iterations 118
DICPCG:  Solving for p, Initial residual = 0.00019291494, Final residual = 9.4478165e-06, No Iterations 4
DICPCG:  Solving for p, Initial residual = 4.9474787e-05, Final residual = 9.7848798e-07, No Iterations 45
time step continuity errors : sum local = 3.5496275e-12, global = -4.6174606e-15, cumulative = -5.1614106e-08
ExecutionTime = 32.54 s  ClockTime = 32 s

Time = 4.8

Courant Number mean: 0.00058416764 max: 0.074759794
smoothSolver:  Solving for Ux, Initial residual = 0.00061474068, Final residual = 3.1949941e-08, No Iterations 1
smoothSolver:  Solving for Uy, Initial residual = 0.00096652136, Final residual = 5.0030525e-08, No Iterations 1
smoothSolver:  Solving for Uz, Initial residual = 0.00085138938, Final residual = 4.2449102e-08, No Iterations 1
DICPCG:  Solving for p, Initial residual = 0.0093128946, Final residual = 0.00034818178, No Iterations 2
DICPCG:  Solving for p, Initial residual = 0.0013191819, Final residual = 6.4261769e-05, No Iterations 24
DICPCG:  Solving for p, Initial residual = 0.00046357933, Final residual = 2.1487878e-05, No Iterations 16
time step continuity errors : sum local = 7.6744826e-11, global = 3.0568643e-11, cumulative = -5.1583538e-08
DICPCG:  Solving for p, Initial residual = 0.00019512531, Final residual = 9.7041851e-06, No Iterations 118
DICPCG:  Solving for p, Initial residual = 0.00019678925, Final residual = 8.1045481e-06, No Iterations 5
DICPCG:  Solving for p, Initial residual = 5.1085977e-05, Final residual = 9.9773151e-07, No Iterations 57
time step continuity errors : sum local = 3.5609063e-12, global = 2.4401953e-14, cumulative = -5.1583513e-08
ExecutionTime = 33.14 s  ClockTime = 33 s

Time = 4.9

Courant Number mean: 0.00058416224 max: 0.074802914
smoothSolver:  Solving for Ux, Initial residual = 0.00060423155, Final residual = 3.1028637e-08, No Iterations 1
smoothSolver:  Solving for Uy, Initial residual = 0.00095061466, Final residual = 4.8987492e-08, No Iterations 1
smoothSolver:  Solving for Uz, Initial residual = 0.00083735285, Final residual = 4.1640851e-08, No Iterations 1
DICPCG:  Solving for p, Initial residual = 0.0092336376, Final residual = 0.00036489689, No Iterations 2
DICPCG:  Solving for p, Initial residual = 0.0013089794, Final residual = 6.3744456e-05, No Iterations 24
DICPCG:  Solving for p, Initial residual = 0.00046876235, Final residual = 2.2457616e-05, No Iterations 16
time step continuity errors : sum local = 7.8940132e-11, global = 3.2484322e-11, cumulative = -5.1551029e-08
DICPCG:  Solving for p, Initial residual = 0.00019853773, Final residual = 9.8852551e-06, No Iterations 118
DICPCG:  Solving for p, Initial residual = 0.0002056639, Final residual = 8.2954193e-06, No Iterations 5
DICPCG:  Solving for p, Initial residual = 5.3073034e-05, Final residual = 9.7738461e-07, No Iterations 45
time step continuity errors : sum local = 3.432993e-12, global = 2.0499884e-14, cumulative = -5.1551008e-08
ExecutionTime = 33.73 s  ClockTime = 33 s

Time = 5

Courant Number mean: 0.00058415689 max: 0.07484397
smoothSolver:  Solving for Ux, Initial residual = 0.0005941075, Final residual = 3.0310218e-08, No Iterations 1
smoothSolver:  Solving for Uy, Initial residual = 0.00093538262, Final residual = 4.8176059e-08, No Iterations 1
smoothSolver:  Solving for Uz, Initial residual = 0.00082396907, Final residual = 4.0856123e-08, No Iterations 1
DICPCG:  Solving for p, Initial residual = 0.0088255383, Final residual = 0.00034974981, No Iterations 2
DICPCG:  Solving for p, Initial residual = 0.0012443353, Final residual = 5.6592371e-05, No Iterations 26
DICPCG:  Solving for p, Initial residual = 0.00044959056, Final residual = 2.2277586e-05, No Iterations 15
time step continuity errors : sum local = 7.712441e-11, global = 2.8454828e-11, cumulative = -5.1522554e-08
DICPCG:  Solving for p, Initial residual = 0.0001837155, Final residual = 8.9885489e-06, No Iterations 116
DICPCG:  Solving for p, Initial residual = 0.00018552097, Final residual = 9.0894499e-06, No Iterations 4
DICPCG:  Solving for p, Initial residual = 4.756715e-05, Final residual = 9.5092809e-07, No Iterations 56
time step continuity errors : sum local = 3.2899141e-12, global = 3.4920522e-14, cumulative = -5.1522519e-08
ExecutionTime = 34.51 s  ClockTime = 34 s

Time = 5.1

Courant Number mean: 0.0005841516 max: 0.074885255
smoothSolver:  Solving for Ux, Initial residual = 0.00058446088, Final residual = 2.9641584e-08, No Iterations 1
smoothSolver:  Solving for Uy, Initial residual = 0.00092096235, Final residual = 4.7439967e-08, No Iterations 1
smoothSolver:  Solving for Uz, Initial residual = 0.00081106832, Final residual = 4.0192325e-08, No Iterations 1
DICPCG:  Solving for p, Initial residual = 0.0086605427, Final residual = 0.00034487978, No Iterations 2
DICPCG:  Solving for p, Initial residual = 0.0012285225, Final residual = 5.7219469e-05, No Iterations 26
DICPCG:  Solving for p, Initial residual = 0.00045483035, Final residual = 2.1519556e-05, No Iterations 16
time step continuity errors : sum local = 7.3409757e-11, global = 2.9703662e-11, cumulative = -5.1492815e-08
DICPCG:  Solving for p, Initial residual = 0.00018440298, Final residual = 8.7733151e-06, No Iterations 118
DICPCG:  Solving for p, Initial residual = 0.00019391271, Final residual = 9.3201371e-06, No Iterations 4
DICPCG:  Solving for p, Initial residual = 4.9211672e-05, Final residual = 9.9815664e-07, No Iterations 33
time step continuity errors : sum local = 3.4026529e-12, global = 1.6332736e-14, cumulative = -5.1492799e-08
ExecutionTime = 35.07 s  ClockTime = 35 s

Time = 5.2

Courant Number mean: 0.00058414641 max: 0.074926527
smoothSolver:  Solving for Ux, Initial residual = 0.0005751729, Final residual = 2.8993301e-08, No Iterations 1
smoothSolver:  Solving for Uy, Initial residual = 0.00090721074, Final residual = 4.6792505e-08, No Iterations 1
smoothSolver:  Solving for Uz, Initial residual = 0.00079873858, Final residual = 3.9539171e-08, No Iterations 1
DICPCG:  Solving for p, Initial residual = 0.0085650104, Final residual = 0.00033426535, No Iterations 2
DICPCG:  Solving for p, Initial residual = 0.0012148595, Final residual = 5.9179813e-05, No Iterations 24
DICPCG:  Solving for p, Initial residual = 0.00043860887, Final residual = 2.1594298e-05, No Iterations 17
time step continuity errors : sum local = 7.2597877e-11, global = 3.1548753e-11, cumulative = -5.146125e-08
DICPCG:  Solving for p, Initial residual = 0.00017965294, Final residual = 8.2606216e-06, No Iterations 119
DICPCG:  Solving for p, Initial residual = 0.0002041778, Final residual = 9.9332669e-06, No Iterations 4
DICPCG:  Solving for p, Initial residual = 5.1395947e-05, Final residual = 9.6934048e-07, No Iterations 32
time step continuity errors : sum local = 3.2564147e-12, global = 7.1282665e-15, cumulative = -5.1461243e-08
ExecutionTime = 35.64 s  ClockTime = 35 s

Time = 5.3

Courant Number mean: 0.00058414171 max: 0.074967483
smoothSolver:  Solving for Ux, Initial residual = 0.00056620115, Final residual = 2.8395944e-08, No Iterations 1
smoothSolver:  Solving for Uy, Initial residual = 0.00089381729, Final residual = 4.6159958e-08, No Iterations 1
smoothSolver:  Solving for Uz, Initial residual = 0.00078668416, Final residual = 3.8859366e-08, No Iterations 1
DICPCG:  Solving for p, Initial residual = 0.0084925221, Final residual = 0.0003039847, No Iterations 2
DICPCG:  Solving for p, Initial residual = 0.0012070547, Final residual = 5.9860229e-05, No Iterations 24
DICPCG:  Solving for p, Initial residual = 0.00043923789, Final residual = 2.0811828e-05, No Iterations 16
time step continuity errors : sum local = 6.8967167e-11, global = 2.9707697e-11, cumulative = -5.1431535e-08
DICPCG:  Solving for p, Initial residual = 0.00018319268, Final residual = 9.0997519e-06, No Iterations 118
DICPCG:  Solving for p, Initial residual = 0.00019799384, Final residual = 9.7429704e-06, No Iterations 4
DICPCG:  Solving for p, Initial residual = 5.0350283e-05, Final residual = 9.8995481e-07, No Iterations 46
time step continuity errors : sum local = 3.2782218e-12, global = 4.5179488e-14, cumulative = -5.143149e-08
ExecutionTime = 36.23 s  ClockTime = 36 s

Time = 5.4

Courant Number mean: 0.00058413722 max: 0.075008291
smoothSolver:  Solving for Ux, Initial residual = 0.0005574835, Final residual = 2.7819896e-08, No Iterations 1
smoothSolver:  Solving for Uy, Initial residual = 0.00088055672, Final residual = 4.5538606e-08, No Iterations 1
smoothSolver:  Solving for Uz, Initial residual = 0.00077499822, Final residual = 3.8212018e-08, No Iterations 1
DICPCG:  Solving for p, Initial residual = 0.0083152016, Final residual = 0.0003256436, No Iterations 2
DICPCG:  Solving for p, Initial residual = 0.0011817861, Final residual = 5.7502704e-05, No Iterations 26
DICPCG:  Solving for p, Initial residual = 0.00044925487, Final residual = 2.1873936e-05, No Iterations 16
time step continuity errors : sum local = 7.1487508e-11, global = 3.0180203e-11, cumulative = -5.140131e-08
DICPCG:  Solving for p, Initial residual = 0.00018413858, Final residual = 9.0548643e-06, No Iterations 117
DICPCG:  Solving for p, Initial residual = 0.00020210845, Final residual = 9.73333e-06, No Iterations 4
DICPCG:  Solving for p, Initial residual = 5.1272476e-05, Final residual = 9.7882118e-07, No Iterations 32
time step continuity errors : sum local = 3.1966708e-12, global = 1.3501213e-14, cumulative = -5.1401296e-08
ExecutionTime = 36.79 s  ClockTime = 36 s

Time = 5.5

Courant Number mean: 0.00058413264 max: 0.075049009
smoothSolver:  Solving for Ux, Initial residual = 0.00054922318, Final residual = 2.7294513e-08, No Iterations 1
smoothSolver:  Solving for Uy, Initial residual = 0.00086799183, Final residual = 4.4897127e-08, No Iterations 1
smoothSolver:  Solving for Uz, Initial residual = 0.00076355168, Final residual = 3.7601376e-08, No Iterations 1
DICPCG:  Solving for p, Initial residual = 0.0081837528, Final residual = 0.00032985034, No Iterations 2
DICPCG:  Solving for p, Initial residual = 0.0011743972, Final residual = 5.7407349e-05, No Iterations 26
DICPCG:  Solving for p, Initial residual = 0.00044739445, Final residual = 2.1035646e-05, No Iterations 16
time step continuity errors : sum local = 6.7821216e-11, global = 2.8059381e-11, cumulative = -5.1373237e-08
DICPCG:  Solving for p, Initial residual = 0.00018384231, Final residual = 8.8823431e-06, No Iterations 118
DICPCG:  Solving for p, Initial residual = 0.00019266042, Final residual = 9.3434368e-06, No Iterations 4
DICPCG:  Solving for p, Initial residual = 4.9125111e-05, Final residual = 9.8758916e-07, No Iterations 39
time step continuity errors : sum local = 3.1819672e-12, global = 2.4275161e-14, cumulative = -5.1373213e-08
ExecutionTime = 37.55 s  ClockTime = 37 s

Time = 5.6

Courant Number mean: 0.00058412812 max: 0.075089186
smoothSolver:  Solving for Ux, Initial residual = 0.00054128001, Final residual = 2.6755816e-08, No Iterations 1
smoothSolver:  Solving for Uy, Initial residual = 0.00085607507, Final residual = 4.4327456e-08, No Iterations 1
smoothSolver:  Solving for Uz, Initial residual = 0.00075262344, Final residual = 3.6956689e-08, No Iterations 1
DICPCG:  Solving for p, Initial residual = 0.0080195947, Final residual = 0.00032720787, No Iterations 2
DICPCG:  Solving for p, Initial residual = 0.001152398, Final residual = 5.6853197e-05, No Iterations 26
DICPCG:  Solving for p, Initial residual = 0.00044500535, Final residual = 2.1060056e-05, No Iterations 16
time step continuity errors : sum local = 6.7010913e-11, global = 2.7333963e-11, cumulative = -5.1345879e-08
DICPCG:  Solving for p, Initial residual = 0.00018255735, Final residual = 9.0210097e-06, No Iterations 118
DICPCG:  Solving for p, Initial residual = 0.00019009681, Final residual = 9.3562526e-06, No Iterations 4
DICPCG:  Solving for p, Initial residual = 4.8652838e-05, Final residual = 9.9497133e-07, No Iterations 48
time step continuity errors : sum local = 3.1638183e-12, global = 3.2349348e-14, cumulative = -5.1345846e-08
ExecutionTime = 38.14 s  ClockTime = 38 s

Time = 5.7

Courant Number mean: 0.00058412378 max: 0.07512858
smoothSolver:  Solving for Ux, Initial residual = 0.00053354795, Final residual = 2.6263993e-08, No Iterations 1
smoothSolver:  Solving for Uy, Initial residual = 0.00084439962, Final residual = 4.385184e-08, No Iterations 1
smoothSolver:  Solving for Uz, Initial residual = 0.00074212665, Final residual = 3.6368032e-08, No Iterations 1
DICPCG:  Solving for p, Initial residual = 0.0079230028, Final residual = 0.00032643103, No Iterations 2
DICPCG:  Solving for p, Initial residual = 0.00115183, Final residual = 5.5956517e-05, No Iterations 26
DICPCG:  Solving for p, Initial residual = 0.00044277752, Final residual = 2.1271246e-05, No Iterations 15
time step continuity errors : sum local = 6.6817757e-11, global = 2.5960173e-11, cumulative = -5.1319886e-08
DICPCG:  Solving for p, Initial residual = 0.00018115862, Final residual = 8.5773927e-06, No Iterations 118
DICPCG:  Solving for p, Initial residual = 0.00018320934, Final residual = 8.8729998e-06, No Iterations 4
DICPCG:  Solving for p, Initial residual = 4.716084e-05, Final residual = 9.8607756e-07, No Iterations 48
time step continuity errors : sum local = 3.09557e-12, global = 4.6578077e-14, cumulative = -5.131984e-08
ExecutionTime = 38.73 s  ClockTime = 38 s

Time = 5.8

Courant Number mean: 0.00058411989 max: 0.075167601
smoothSolver:  Solving for Ux, Initial residual = 0.00052612301, Final residual = 2.5905569e-08, No Iterations 1
smoothSolver:  Solving for Uy, Initial residual = 0.00083285492, Final residual = 4.3320613e-08, No Iterations 1
smoothSolver:  Solving for Uz, Initial residual = 0.00073200908, Final residual = 3.5774467e-08, No Iterations 1
DICPCG:  Solving for p, Initial residual = 0.0078120269, Final residual = 0.00031232359, No Iterations 2
DICPCG:  Solving for p, Initial residual = 0.001135103, Final residual = 5.5237207e-05, No Iterations 26
DICPCG:  Solving for p, Initial residual = 0.0004304753, Final residual = 2.0807729e-05, No Iterations 15
time step continuity errors : sum local = 6.4547593e-11, global = 2.5636934e-11, cumulative = -5.1294203e-08
DICPCG:  Solving for p, Initial residual = 0.00017614488, Final residual = 8.7412193e-06, No Iterations 117
DICPCG:  Solving for p, Initial residual = 0.00018251219, Final residual = 8.9844575e-06, No Iterations 4
DICPCG:  Solving for p, Initial residual = 4.6839172e-05, Final residual = 9.936837e-07, No Iterations 47
time step continuity errors : sum local = 3.0805826e-12, global = 3.6062093e-14, cumulative = -5.1294167e-08
ExecutionTime = 39.31 s  ClockTime = 39 s

Time = 5.9

Courant Number mean: 0.00058411602 max: 0.075205405
smoothSolver:  Solving for Ux, Initial residual = 0.00051893752, Final residual = 2.5543345e-08, No Iterations 1
smoothSolver:  Solving for Uy, Initial residual = 0.00082150456, Final residual = 4.2784133e-08, No Iterations 1
smoothSolver:  Solving for Uz, Initial residual = 0.00072221236, Final residual = 3.515435e-08, No Iterations 1
DICPCG:  Solving for p, Initial residual = 0.0076832621, Final residual = 0.00030810589, No Iterations 2
DICPCG:  Solving for p, Initial residual = 0.0011145281, Final residual = 5.3431811e-05, No Iterations 26
DICPCG:  Solving for p, Initial residual = 0.0004224763, Final residual = 2.0615977e-05, No Iterations 14
time step continuity errors : sum local = 6.3177863e-11, global = 2.2621768e-11, cumulative = -5.1271545e-08
DICPCG:  Solving for p, Initial residual = 0.0001724202, Final residual = 8.4564039e-06, No Iterations 113
DICPCG:  Solving for p, Initial residual = 0.0001659356, Final residual = 8.1252892e-06, No Iterations 4
DICPCG:  Solving for p, Initial residual = 4.2715012e-05, Final residual = 9.6255438e-07, No Iterations 61
time step continuity errors : sum local = 2.9481137e-12, global = 5.3905483e-14, cumulative = -5.1271491e-08
ExecutionTime = 39.92 s  ClockTime = 40 s

Time = 6

Courant Number mean: 0.00058411226 max: 0.07524197
smoothSolver:  Solving for Ux, Initial residual = 0.00051192243, Final residual = 2.5179812e-08, No Iterations 1
smoothSolver:  Solving for Uy, Initial residual = 0.00081076084, Final residual = 4.2318953e-08, No Iterations 1
smoothSolver:  Solving for Uz, Initial residual = 0.00071282003, Final residual = 3.4568081e-08, No Iterations 1
DICPCG:  Solving for p, Initial residual = 0.0075362184, Final residual = 0.00031000163, No Iterations 2
DICPCG:  Solving for p, Initial residual = 0.0011062768, Final residual = 5.4444449e-05, No Iterations 26
DICPCG:  Solving for p, Initial residual = 0.00043358949, Final residual = 2.1103206e-05, No Iterations 14
time step continuity errors : sum local = 6.3911682e-11, global = 2.3398634e-11, cumulative = -5.1248092e-08
DICPCG:  Solving for p, Initial residual = 0.00017556923, Final residual = 8.3256643e-06, No Iterations 115
DICPCG:  Solving for p, Initial residual = 0.00017209148, Final residual = 8.4326924e-06, No Iterations 4
DICPCG:  Solving for p, Initial residual = 4.4184211e-05, Final residual = 9.991514e-07, No Iterations 55
time step continuity errors : sum local = 3.0242249e-12, global = 2.6294521e-14, cumulative = -5.1248066e-08
ExecutionTime = 40.69 s  ClockTime = 40 s

Time = 6.1

Courant Number mean: 0.00058410862 max: 0.075278031
smoothSolver:  Solving for Ux, Initial residual = 0.00050522168, Final residual = 2.4840932e-08, No Iterations 1
smoothSolver:  Solving for Uy, Initial residual = 0.00080046516, Final residual = 4.1823256e-08, No Iterations 1
smoothSolver:  Solving for Uz, Initial residual = 0.0007038932, Final residual = 3.4038464e-08, No Iterations 1
DICPCG:  Solving for p, Initial residual = 0.0074000669, Final residual = 0.00031289623, No Iterations 2
DICPCG:  Solving for p, Initial residual = 0.0010771052, Final residual = 4.9989927e-05, No Iterations 27
DICPCG:  Solving for p, Initial residual = 0.00041765147, Final residual = 2.0490462e-05, No Iterations 15
time step continuity errors : sum local = 6.1340418e-11, global = 2.3699748e-11, cumulative = -5.1224366e-08
DICPCG:  Solving for p, Initial residual = 0.00017070298, Final residual = 8.3321092e-06, No Iterations 119
[...]
DICPCG:  Solving for p, Initial residual = 5.0034726e-05, Final residual = 2.1378616e-06, No Iterations 6
DICPCG:  Solving for p, Initial residual = 1.4155662e-05, Final residual = 9.9406856e-07, No Iterations 45
time step continuity errors : sum local = 1.6403947e-12, global = 2.4102384e-14, cumulative = -5.0102406e-08
ExecutionTime = 117.01 s  ClockTime = 117 s

Time = 18.6

Courant Number mean: 0.00058520104 max: 0.078954904
smoothSolver:  Solving for Ux, Initial residual = 0.00024540399, Final residual = 6.5245974e-09, No Iterations 1
smoothSolver:  Solving for Uy, Initial residual = 0.00037823104, Final residual = 1.0710612e-08, No Iterations 1
smoothSolver:  Solving for Uz, Initial residual = 0.00035419908, Final residual = 9.3485075e-09, No Iterations 1
DICPCG:  Solving for p, Initial residual = 0.0023068366, Final residual = 0.00010870139, No Iterations 2
DICPCG:  Solving for p, Initial residual = 0.00034785282, Final residual = 1.5892222e-05, No Iterations 23
DICPCG:  Solving for p, Initial residual = 0.00014828385, Final residual = 6.9233401e-06, No Iterations 14
time step continuity errors : sum local = 1.1403246e-11, global = 3.307737e-12, cumulative = -5.0099099e-08
DICPCG:  Solving for p, Initial residual = 5.6203741e-05, Final residual = 2.6427884e-06, No Iterations 136
DICPCG:  Solving for p, Initial residual = 5.2140815e-05, Final residual = 2.6027049e-06, No Iterations 4
DICPCG:  Solving for p, Initial residual = 1.330681e-05, Final residual = 9.9325096e-07, No Iterations 9
time step continuity errors : sum local = 1.6357361e-12, global = 7.5842286e-15, cumulative = -5.0099091e-08
ExecutionTime = 117.55 s  ClockTime = 117 s

Time = 18.7

Courant Number mean: 0.00058521795 max: 0.07895284
smoothSolver:  Solving for Ux, Initial residual = 0.00024478496, Final residual = 6.4750048e-09, No Iterations 1
smoothSolver:  Solving for Uy, Initial residual = 0.00037703451, Final residual = 1.0619691e-08, No Iterations 1
smoothSolver:  Solving for Uz, Initial residual = 0.00035340461, Final residual = 9.2915575e-09, No Iterations 1
DICPCG:  Solving for p, Initial residual = 0.0023295451, Final residual = 8.157354e-05, No Iterations 3
DICPCG:  Solving for p, Initial residual = 0.0003694743, Final residual = 1.8377677e-05, No Iterations 23
DICPCG:  Solving for p, Initial residual = 0.00015407613, Final residual = 7.2823947e-06, No Iterations 14
time step continuity errors : sum local = 1.1969805e-11, global = 3.2312979e-12, cumulative = -5.009586e-08
DICPCG:  Solving for p, Initial residual = 6.0582067e-05, Final residual = 2.9717113e-06, No Iterations 114
DICPCG:  Solving for p, Initial residual = 5.3430947e-05, Final residual = 2.5503723e-06, No Iterations 5
DICPCG:  Solving for p, Initial residual = 1.397922e-05, Final residual = 9.7515764e-07, No Iterations 41
time step continuity errors : sum local = 1.6026164e-12, global = 1.578309e-14, cumulative = -5.0095844e-08
ExecutionTime = 118.12 s  ClockTime = 118 s

Time = 18.8

Courant Number mean: 0.00058523501 max: 0.078950463
smoothSolver:  Solving for Ux, Initial residual = 0.0002441991, Final residual = 6.43098e-09, No Iterations 1
smoothSolver:  Solving for Uy, Initial residual = 0.00037584782, Final residual = 1.0548129e-08, No Iterations 1
smoothSolver:  Solving for Uz, Initial residual = 0.00035275817, Final residual = 9.2387944e-09, No Iterations 1
DICPCG:  Solving for p, Initial residual = 0.002365518, Final residual = 8.412508e-05, No Iterations 3
DICPCG:  Solving for p, Initial residual = 0.0003854186, Final residual = 1.8604701e-05, No Iterations 23
DICPCG:  Solving for p, Initial residual = 0.00015645579, Final residual = 6.7734805e-06, No Iterations 14
time step continuity errors : sum local = 1.1110088e-11, global = 2.7912819e-12, cumulative = -5.0093053e-08
DICPCG:  Solving for p, Initial residual = 6.0525619e-05, Final residual = 2.846213e-06, No Iterations 121
DICPCG:  Solving for p, Initial residual = 4.9417532e-05, Final residual = 2.1171241e-06, No Iterations 6
DICPCG:  Solving for p, Initial residual = 1.3207377e-05, Final residual = 9.9994367e-07, No Iterations 19
time step continuity errors : sum local = 1.6399514e-12, global = 1.5198137e-14, cumulative = -5.0093038e-08
ExecutionTime = 118.67 s  ClockTime = 119 s

Time = 18.9

Courant Number mean: 0.00058525239 max: 0.078947782
smoothSolver:  Solving for Ux, Initial residual = 0.00024358205, Final residual = 6.379784e-09, No Iterations 1
smoothSolver:  Solving for Uy, Initial residual = 0.0003747223, Final residual = 1.0460521e-08, No Iterations 1
smoothSolver:  Solving for Uz, Initial residual = 0.00035218403, Final residual = 9.181227e-09, No Iterations 1
DICPCG:  Solving for p, Initial residual = 0.0024256766, Final residual = 8.961471e-05, No Iterations 3
DICPCG:  Solving for p, Initial residual = 0.00041168156, Final residual = 1.9302997e-05, No Iterations 25
DICPCG:  Solving for p, Initial residual = 0.00018554665, Final residual = 8.2212277e-06, No Iterations 13
time step continuity errors : sum local = 1.3456817e-11, global = 2.8041595e-12, cumulative = -5.0090233e-08
DICPCG:  Solving for p, Initial residual = 6.5269505e-05, Final residual = 3.117192e-06, No Iterations 139
DICPCG:  Solving for p, Initial residual = 5.065276e-05, Final residual = 2.2234421e-06, No Iterations 6
DICPCG:  Solving for p, Initial residual = 1.3796826e-05, Final residual = 9.7736911e-07, No Iterations 22
time step continuity errors : sum local = 1.5996102e-12, global = 3.0284626e-14, cumulative = -5.0090203e-08
ExecutionTime = 119.26 s  ClockTime = 119 s

Time = 19

Courant Number mean: 0.00058526959 max: 0.078944791
smoothSolver:  Solving for Ux, Initial residual = 0.00024296135, Final residual = 6.3304397e-09, No Iterations 1
smoothSolver:  Solving for Uy, Initial residual = 0.00037339227, Final residual = 1.0387406e-08, No Iterations 1
smoothSolver:  Solving for Uz, Initial residual = 0.00035116028, Final residual = 9.12787e-09, No Iterations 1
DICPCG:  Solving for p, Initial residual = 0.0022893566, Final residual = 0.00010588154, No Iterations 2
DICPCG:  Solving for p, Initial residual = 0.00033848172, Final residual = 1.638309e-05, No Iterations 22
DICPCG:  Solving for p, Initial residual = 0.00013827392, Final residual = 6.8663155e-06, No Iterations 13
time step continuity errors : sum local = 1.1217197e-11, global = 2.7403966e-12, cumulative = -5.0087463e-08
DICPCG:  Solving for p, Initial residual = 5.1889836e-05, Final residual = 2.3730323e-06, No Iterations 137
DICPCG:  Solving for p, Initial residual = 4.4929489e-05, Final residual = 2.2394662e-06, No Iterations 4
DICPCG:  Solving for p, Initial residual = 1.1636168e-05, Final residual = 8.8419699e-07, No Iterations 6
time step continuity errors : sum local = 1.4443076e-12, global = 4.2147833e-14, cumulative = -5.0087421e-08
ExecutionTime = 119.99 s  ClockTime = 120 s

Time = 19.1

Courant Number mean: 0.00058528684 max: 0.078941498
smoothSolver:  Solving for Ux, Initial residual = 0.00024235967, Final residual = 6.2848519e-09, No Iterations 1
smoothSolver:  Solving for Uy, Initial residual = 0.00037227275, Final residual = 1.0321147e-08, No Iterations 1
smoothSolver:  Solving for Uz, Initial residual = 0.00035041678, Final residual = 9.0814384e-09, No Iterations 1
DICPCG:  Solving for p, Initial residual = 0.0022326914, Final residual = 0.00010304038, No Iterations 2
DICPCG:  Solving for p, Initial residual = 0.00032247702, Final residual = 1.6014076e-05, No Iterations 22
DICPCG:  Solving for p, Initial residual = 0.00013337556, Final residual = 6.6548963e-06, No Iterations 13
time step continuity errors : sum local = 1.0851313e-11, global = 2.6998223e-12, cumulative = -5.0084721e-08
DICPCG:  Solving for p, Initial residual = 5.1328411e-05, Final residual = 2.5019737e-06, No Iterations 114
DICPCG:  Solving for p, Initial residual = 4.5388208e-05, Final residual = 2.060079e-06, No Iterations 5
DICPCG:  Solving for p, Initial residual = 1.1916038e-05, Final residual = 9.3824695e-07, No Iterations 37
time step continuity errors : sum local = 1.5297073e-12, global = 2.9628839e-14, cumulative = -5.0084691e-08
ExecutionTime = 120.55 s  ClockTime = 120 s

Time = 19.2

Courant Number mean: 0.00058530426 max: 0.078937898
smoothSolver:  Solving for Ux, Initial residual = 0.00024173746, Final residual = 6.2448637e-09, No Iterations 1
smoothSolver:  Solving for Uy, Initial residual = 0.00037113554, Final residual = 1.0251017e-08, No Iterations 1
smoothSolver:  Solving for Uz, Initial residual = 0.00034961926, Final residual = 9.032105e-09, No Iterations 1
DICPCG:  Solving for p, Initial residual = 0.0022737594, Final residual = 0.0001044282, No Iterations 2
DICPCG:  Solving for p, Initial residual = 0.00033820766, Final residual = 1.6300516e-05, No Iterations 22
DICPCG:  Solving for p, Initial residual = 0.00013829535, Final residual = 6.4576331e-06, No Iterations 13
time step continuity errors : sum local = 1.0509937e-11, global = 2.6137326e-12, cumulative = -5.0082077e-08
DICPCG:  Solving for p, Initial residual = 5.1908262e-05, Final residual = 2.5866502e-06, No Iterations 116
DICPCG:  Solving for p, Initial residual = 4.4298745e-05, Final residual = 1.9753759e-06, No Iterations 5
DICPCG:  Solving for p, Initial residual = 1.16642e-05, Final residual = 9.9903664e-07, No Iterations 24
time step continuity errors : sum local = 1.6257739e-12, global = 4.0514036e-14, cumulative = -5.0082037e-08
ExecutionTime = 121.09 s  ClockTime = 121 s

Time = 19.3

Courant Number mean: 0.00058532179 max: 0.078933987
smoothSolver:  Solving for Ux, Initial residual = 0.00024107651, Final residual = 6.2067898e-09, No Iterations 1
smoothSolver:  Solving for Uy, Initial residual = 0.00037008925, Final residual = 1.0188434e-08, No Iterations 1
smoothSolver:  Solving for Uz, Initial residual = 0.00034876677, Final residual = 8.9672371e-09, No Iterations 1
DICPCG:  Solving for p, Initial residual = 0.0023177244, Final residual = 0.00010307163, No Iterations 2
DICPCG:  Solving for p, Initial residual = 0.00035406501, Final residual = 1.7163765e-05, No Iterations 21
DICPCG:  Solving for p, Initial residual = 0.00014256281, Final residual = 6.8157366e-06, No Iterations 11
time step continuity errors : sum local = 1.1072463e-11, global = 2.1182499e-12, cumulative = -5.0079919e-08
DICPCG:  Solving for p, Initial residual = 5.0896089e-05, Final residual = 2.5018078e-06, No Iterations 104
DICPCG:  Solving for p, Initial residual = 3.7317546e-05, Final residual = 1.8012752e-06, No Iterations 5
DICPCG:  Solving for p, Initial residual = 1.0436278e-05, Final residual = 9.7721902e-07, No Iterations 5
time step continuity errors : sum local = 1.5873968e-12, global = 2.106956e-14, cumulative = -5.0079898e-08
ExecutionTime = 121.57 s  ClockTime = 122 s

Time = 19.4

Courant Number mean: 0.00058533952 max: 0.078929771
smoothSolver:  Solving for Ux, Initial residual = 0.00024055133, Final residual = 6.1698086e-09, No Iterations 1
smoothSolver:  Solving for Uy, Initial residual = 0.00036900374, Final residual = 1.0147143e-08, No Iterations 1
smoothSolver:  Solving for Uz, Initial residual = 0.00034801606, Final residual = 8.952228e-09, No Iterations 1
DICPCG:  Solving for p, Initial residual = 0.0022738185, Final residual = 0.00010422691, No Iterations 2
DICPCG:  Solving for p, Initial residual = 0.00035910925, Final residual = 1.7169165e-05, No Iterations 22
DICPCG:  Solving for p, Initial residual = 0.00015378567, Final residual = 7.5864162e-06, No Iterations 11
time step continuity errors : sum local = 1.2301101e-11, global = 1.644193e-12, cumulative = -5.0078253e-08
DICPCG:  Solving for p, Initial residual = 5.3593573e-05, Final residual = 2.6627494e-06, No Iterations 131
DICPCG:  Solving for p, Initial residual = 4.4877271e-05, Final residual = 2.0068637e-06, No Iterations 5
DICPCG:  Solving for p, Initial residual = 1.187591e-05, Final residual = 9.3941754e-07, No Iterations 17
time step continuity errors : sum local = 1.5231125e-12, global = 2.4494737e-14, cumulative = -5.0078229e-08
ExecutionTime = 122.12 s  ClockTime = 122 s

Time = 19.5

Courant Number mean: 0.00058535734 max: 0.078924928
smoothSolver:  Solving for Ux, Initial residual = 0.00023993165, Final residual = 6.1309331e-09, No Iterations 1
smoothSolver:  Solving for Uy, Initial residual = 0.00036792902, Final residual = 1.0072305e-08, No Iterations 1
smoothSolver:  Solving for Uz, Initial residual = 0.00034719112, Final residual = 8.895834e-09, No Iterations 1
DICPCG:  Solving for p, Initial residual = 0.0022240047, Final residual = 9.8361157e-05, No Iterations 2
DICPCG:  Solving for p, Initial residual = 0.00033492389, Final residual = 1.5022336e-05, No Iterations 22
DICPCG:  Solving for p, Initial residual = 0.00013889497, Final residual = 6.6046211e-06, No Iterations 12
time step continuity errors : sum local = 1.0689056e-11, global = 2.8529104e-12, cumulative = -5.0075376e-08
DICPCG:  Solving for p, Initial residual = 5.0362409e-05, Final residual = 2.4170599e-06, No Iterations 138
DICPCG:  Solving for p, Initial residual = 4.2742214e-05, Final residual = 1.9166578e-06, No Iterations 5
DICPCG:  Solving for p, Initial residual = 1.1440032e-05, Final residual = 9.7955476e-07, No Iterations 5
time step continuity errors : sum local = 1.585151e-12, global = 3.04141e-14, cumulative = -5.0075346e-08
ExecutionTime = 122.86 s  ClockTime = 123 s

Time = 19.6

Courant Number mean: 0.0005853751 max: 0.078919794
smoothSolver:  Solving for Ux, Initial residual = 0.00023942952, Final residual = 6.085317e-09, No Iterations 1
smoothSolver:  Solving for Uy, Initial residual = 0.00036679016, Final residual = 1.0011923e-08, No Iterations 1
smoothSolver:  Solving for Uz, Initial residual = 0.00034646809, Final residual = 8.8331016e-09, No Iterations 1
DICPCG:  Solving for p, Initial residual = 0.0022229789, Final residual = 8.9760193e-05, No Iterations 2
DICPCG:  Solving for p, Initial residual = 0.00032929888, Final residual = 1.3965807e-05, No Iterations 22
DICPCG:  Solving for p, Initial residual = 0.00012818367, Final residual = 6.0525038e-06, No Iterations 11
time step continuity errors : sum local = 9.7778909e-12, global = 2.3830616e-12, cumulative = -5.0072962e-08
DICPCG:  Solving for p, Initial residual = 4.6529811e-05, Final residual = 2.1740418e-06, No Iterations 134
DICPCG:  Solving for p, Initial residual = 4.1426954e-05, Final residual = 2.0053516e-06, No Iterations 4
DICPCG:  Solving for p, Initial residual = 1.0919568e-05, Final residual = 9.2809305e-07, No Iterations 6
time step continuity errors : sum local = 1.4991896e-12, global = 3.9069293e-14, cumulative = -5.0072923e-08
ExecutionTime = 123.4 s  ClockTime = 123 s

Time = 19.7

Courant Number mean: 0.00058539301 max: 0.078914367
smoothSolver:  Solving for Ux, Initial residual = 0.00023878631, Final residual = 6.034597e-09, No Iterations 1
smoothSolver:  Solving for Uy, Initial residual = 0.00036569244, Final residual = 9.958743e-09, No Iterations 1
smoothSolver:  Solving for Uz, Initial residual = 0.00034572338, Final residual = 8.7618809e-09, No Iterations 1
DICPCG:  Solving for p, Initial residual = 0.0021624566, Final residual = 8.949604e-05, No Iterations 2
DICPCG:  Solving for p, Initial residual = 0.00031740213, Final residual = 1.5166753e-05, No Iterations 22
DICPCG:  Solving for p, Initial residual = 0.0001272505, Final residual = 6.141354e-06, No Iterations 12
time step continuity errors : sum local = 9.9039742e-12, global = 2.5225072e-12, cumulative = -5.0070401e-08
DICPCG:  Solving for p, Initial residual = 4.7245374e-05, Final residual = 2.3091277e-06, No Iterations 107
DICPCG:  Solving for p, Initial residual = 3.9212236e-05, Final residual = 1.825983e-06, No Iterations 5
DICPCG:  Solving for p, Initial residual = 1.0482525e-05, Final residual = 9.0270498e-07, No Iterations 6
time step continuity errors : sum local = 1.4556079e-12, global = 3.2867568e-14, cumulative = -5.0070368e-08
ExecutionTime = 123.89 s  ClockTime = 124 s

Time = 19.8

Courant Number mean: 0.00058541092 max: 0.078908659
smoothSolver:  Solving for Ux, Initial residual = 0.00023819144, Final residual = 5.9766068e-09, No Iterations 1
smoothSolver:  Solving for Uy, Initial residual = 0.00036459066, Final residual = 9.9121193e-09, No Iterations 1
smoothSolver:  Solving for Uz, Initial residual = 0.00034497065, Final residual = 8.6971106e-09, No Iterations 1
DICPCG:  Solving for p, Initial residual = 0.0021858661, Final residual = 8.3799844e-05, No Iterations 2
DICPCG:  Solving for p, Initial residual = 0.00031371671, Final residual = 1.535983e-05, No Iterations 22
DICPCG:  Solving for p, Initial residual = 0.00012843258, Final residual = 6.1874993e-06, No Iterations 11
time step continuity errors : sum local = 9.9604455e-12, global = 2.4943733e-12, cumulative = -5.0067874e-08
DICPCG:  Solving for p, Initial residual = 4.5994067e-05, Final residual = 2.2572843e-06, No Iterations 116
DICPCG:  Solving for p, Initial residual = 4.3371952e-05, Final residual = 2.1624126e-06, No Iterations 4
DICPCG:  Solving for p, Initial residual = 1.1258879e-05, Final residual = 9.8905215e-07, No Iterations 6
time step continuity errors : sum local = 1.5919805e-12, global = 5.2713059e-14, cumulative = -5.0067821e-08
ExecutionTime = 124.57 s  ClockTime = 125 s

Time = 19.9

Courant Number mean: 0.00058542879 max: 0.078902671
smoothSolver:  Solving for Ux, Initial residual = 0.0002376333, Final residual = 5.9325599e-09, No Iterations 1
smoothSolver:  Solving for Uy, Initial residual = 0.00036360141, Final residual = 9.8674277e-09, No Iterations 1
smoothSolver:  Solving for Uz, Initial residual = 0.00034428607, Final residual = 8.6470078e-09, No Iterations 1
DICPCG:  Solving for p, Initial residual = 0.0021605546, Final residual = 8.7017117e-05, No Iterations 2
DICPCG:  Solving for p, Initial residual = 0.00031500094, Final residual = 1.5439099e-05, No Iterations 22
DICPCG:  Solving for p, Initial residual = 0.00012871774, Final residual = 6.1838359e-06, No Iterations 12
time step continuity errors : sum local = 9.9375556e-12, global = 2.4936079e-12, cumulative = -5.0065327e-08
DICPCG:  Solving for p, Initial residual = 4.7357663e-05, Final residual = 2.3279338e-06, No Iterations 108
DICPCG:  Solving for p, Initial residual = 3.9131618e-05, Final residual = 1.8062401e-06, No Iterations 5
DICPCG:  Solving for p, Initial residual = 1.0657576e-05, Final residual = 9.9830204e-07, No Iterations 5
time step continuity errors : sum local = 1.6041322e-12, global = 2.8417284e-14, cumulative = -5.0065299e-08
ExecutionTime = 125.25 s  ClockTime = 125 s

Time = 20

Courant Number mean: 0.00058544675 max: 0.078896428
smoothSolver:  Solving for Ux, Initial residual = 0.00023707565, Final residual = 5.8853421e-09, No Iterations 1
smoothSolver:  Solving for Uy, Initial residual = 0.00036259632, Final residual = 9.8105882e-09, No Iterations 1
smoothSolver:  Solving for Uz, Initial residual = 0.00034356028, Final residual = 8.5954084e-09, No Iterations 1
DICPCG:  Solving for p, Initial residual = 0.0022136431, Final residual = 7.1949416e-05, No Iterations 3
DICPCG:  Solving for p, Initial residual = 0.00035210809, Final residual = 1.6576646e-05, No Iterations 17
DICPCG:  Solving for p, Initial residual = 0.00012144064, Final residual = 5.7529539e-06, No Iterations 11
time step continuity errors : sum local = 9.2287696e-12, global = 1.6976452e-12, cumulative = -5.0063601e-08
DICPCG:  Solving for p, Initial residual = 4.731896e-05, Final residual = 2.2676979e-06, No Iterations 117
DICPCG:  Solving for p, Initial residual = 3.844176e-05, Final residual = 1.867838e-06, No Iterations 4
DICPCG:  Solving for p, Initial residual = 1.0612939e-05, Final residual = 9.867616e-07, No Iterations 6
time step continuity errors : sum local = 1.5828224e-12, global = 7.693541e-14, cumulative = -5.0063524e-08
ExecutionTime = 126.24 s  ClockTime = 126 s

End

Finalising parallel run
