/*---------------------------------------------------------------------------*\
  =========                 |
  \\      /  F ield         | OpenFOAM: The Open Source CFD Toolbox
   \\    /   O peration     | Website:  https://openfoam.org
    \\  /    A nd           | Version:  8
     \\/     M anipulation  |
\*---------------------------------------------------------------------------*/
Build  : 8-1c9b5879390b
Exec   : icoFoam -parallel
Date   : Nov 25 2021
Time   : 14:43:54
Host   : "pop-os"
PID    : 17341
I/O    : uncollated
Case   : /home/naimishbalaji/Desktop/Mini_Project/CFD-For-Ventilation-Analysis/simulations/icofoam_cases/2_wall_6_ceiling/case
nProcs : 2
Slaves : 1("pop-os.17342")
Pstream initialized with:
    floatTransfer      : 0
    nProcsSimpleSum    : 0
    commsType          : nonBlocking
    polling iterations : 0
sigFpe : Enabling floating point exception trapping (FOAM_SIGFPE).
fileModificationChecking : Monitoring run-time modified files using timeStampMaster (fileModificationSkew 10)
allowSystemOperations : Allowing user-supplied system call operations

// * * * * * * * * * * * * * * * * * * * * * * * * * * * * * * * * * * * * * //
Create time

Create mesh for time = 0

Reading transportProperties

Reading field p

Reading field U

Reading/calculating face flux field phi


Starting time loop

Time = 0.1

Courant Number mean: 2.3359556e-06 max: 0.014873155
smoothSolver:  Solving for Ux, Initial residual = 1, Final residual = 7.663866e-17, No Iterations 1
smoothSolver:  Solving for Uy, Initial residual = 0, Final residual = 0, No Iterations 0
smoothSolver:  Solving for Uz, Initial residual = 1, Final residual = 8.8519504e-17, No Iterations 1
DICPCG:  Solving for p, Initial residual = 1, Final residual = 0.047263736, No Iterations 180
DICPCG:  Solving for p, Initial residual = 0.36238323, Final residual = 0.015257574, No Iterations 4
DICPCG:  Solving for p, Initial residual = 0.062906002, Final residual = 0.002859999, No Iterations 6
time step continuity errors : sum local = 1.6820598e-06, global = -4.2022307e-08, cumulative = -4.2022307e-08
DICPCG:  Solving for p, Initial residual = 0.015472666, Final residual = 0.00074544048, No Iterations 13
DICPCG:  Solving for p, Initial residual = 0.005861987, Final residual = 0.00028494539, No Iterations 21
DICPCG:  Solving for p, Initial residual = 0.0024296642, Final residual = 9.9247128e-07, No Iterations 128
time step continuity errors : sum local = 5.886834e-10, global = 1.060772e-10, cumulative = -4.191623e-08
ExecutionTime = 1.35 s  ClockTime = 2 s

Time = 0.2

Courant Number mean: 0.00055027777 max: 0.070639455
smoothSolver:  Solving for Ux, Initial residual = 0.36998153, Final residual = 8.2609968e-06, No Iterations 1
smoothSolver:  Solving for Uy, Initial residual = 0.33401953, Final residual = 5.4551507e-06, No Iterations 1
smoothSolver:  Solving for Uz, Initial residual = 0.32948592, Final residual = 1.0272021e-08, No Iterations 2
DICPCG:  Solving for p, Initial residual = 0.081874834, Final residual = 0.0039716943, No Iterations 146
DICPCG:  Solving for p, Initial residual = 0.61671728, Final residual = 0.026412067, No Iterations 4
DICPCG:  Solving for p, Initial residual = 0.30532044, Final residual = 0.013750721, No Iterations 8
time step continuity errors : sum local = 1.7071808e-06, global = -1.7614919e-08, cumulative = -5.9531149e-08
DICPCG:  Solving for p, Initial residual = 0.098952739, Final residual = 0.0045290895, No Iterations 45
DICPCG:  Solving for p, Initial residual = 0.068053232, Final residual = 0.0032184346, No Iterations 13
DICPCG:  Solving for p, Initial residual = 0.020958811, Final residual = 9.3141211e-07, No Iterations 197
time step continuity errors : sum local = 9.0906572e-11, global = -1.8358411e-13, cumulative = -5.9531332e-08
ExecutionTime = 2.58 s  ClockTime = 3 s

Time = 0.3

Courant Number mean: 0.00055670055 max: 0.070202009
smoothSolver:  Solving for Ux, Initial residual = 0.024010861, Final residual = 1.0244109e-06, No Iterations 1
smoothSolver:  Solving for Uy, Initial residual = 0.038029145, Final residual = 1.2320624e-06, No Iterations 1
smoothSolver:  Solving for Uz, Initial residual = 0.034492786, Final residual = 1.39724e-06, No Iterations 1
DICPCG:  Solving for p, Initial residual = 0.42377946, Final residual = 0.017068056, No Iterations 4
DICPCG:  Solving for p, Initial residual = 0.20209929, Final residual = 0.0077199311, No Iterations 6
DICPCG:  Solving for p, Initial residual = 0.060641903, Final residual = 0.0029221857, No Iterations 13
time step continuity errors : sum local = 1.1699555e-07, global = -3.1465332e-09, cumulative = -6.2677866e-08
DICPCG:  Solving for p, Initial residual = 0.024457784, Final residual = 0.0011991636, No Iterations 8
DICPCG:  Solving for p, Initial residual = 0.0086795048, Final residual = 0.00040179021, No Iterations 39
DICPCG:  Solving for p, Initial residual = 0.0057188632, Final residual = 9.7686417e-07, No Iterations 192
time step continuity errors : sum local = 3.8674165e-11, global = -3.4929039e-14, cumulative = -6.26779e-08
ExecutionTime = 3.48 s  ClockTime = 4 s

Time = 0.4

Courant Number mean: 0.00055718203 max: 0.070079481
smoothSolver:  Solving for Ux, Initial residual = 0.0086661323, Final residual = 3.9638657e-07, No Iterations 1
smoothSolver:  Solving for Uy, Initial residual = 0.013031867, Final residual = 4.745416e-07, No Iterations 1
smoothSolver:  Solving for Uz, Initial residual = 0.012241629, Final residual = 6.1185924e-07, No Iterations 1
DICPCG:  Solving for p, Initial residual = 0.19360795, Final residual = 0.0081769978, No Iterations 3
DICPCG:  Solving for p, Initial residual = 0.054228858, Final residual = 0.0025227182, No Iterations 13
DICPCG:  Solving for p, Initial residual = 0.016002442, Final residual = 0.00076230395, No Iterations 21
time step continuity errors : sum local = 2.0748108e-08, global = -6.1403287e-09, cumulative = -6.8818229e-08
DICPCG:  Solving for p, Initial residual = 0.0063616242, Final residual = 0.00030984699, No Iterations 113
DICPCG:  Solving for p, Initial residual = 0.0047215929, Final residual = 0.00023035089, No Iterations 6
DICPCG:  Solving for p, Initial residual = 0.0012968898, Final residual = 8.9660692e-07, No Iterations 194
time step continuity errors : sum local = 2.4298939e-11, global = -1.9286688e-14, cumulative = -6.8818248e-08
ExecutionTime = 4.58 s  ClockTime = 5 s

Time = 0.5

Courant Number mean: 0.0005572773 max: 0.070297069
smoothSolver:  Solving for Ux, Initial residual = 0.0057380543, Final residual = 2.5463811e-07, No Iterations 1
smoothSolver:  Solving for Uy, Initial residual = 0.0084695903, Final residual = 3.1827923e-07, No Iterations 1
smoothSolver:  Solving for Uz, Initial residual = 0.0080322732, Final residual = 4.0536422e-07, No Iterations 1
DICPCG:  Solving for p, Initial residual = 0.11218132, Final residual = 0.0046391857, No Iterations 3
DICPCG:  Solving for p, Initial residual = 0.025542391, Final residual = 0.001142547, No Iterations 15
DICPCG:  Solving for p, Initial residual = 0.0070492954, Final residual = 0.0003465267, No Iterations 124
time step continuity errors : sum local = 7.5606933e-09, global = -1.1498186e-11, cumulative = -6.8829747e-08
DICPCG:  Solving for p, Initial residual = 0.0050227715, Final residual = 0.00024442314, No Iterations 6
DICPCG:  Solving for p, Initial residual = 0.0013837968, Final residual = 6.8393652e-05, No Iterations 32
DICPCG:  Solving for p, Initial residual = 0.00075818564, Final residual = 9.8698774e-07, No Iterations 175
time step continuity errors : sum local = 2.1655049e-11, global = 1.2305502e-14, cumulative = -6.8829734e-08
ExecutionTime = 5.88 s  ClockTime = 7 s

Time = 0.6

Courant Number mean: 0.00055733763 max: 0.07059936
smoothSolver:  Solving for Ux, Initial residual = 0.0045233352, Final residual = 2.0425163e-07, No Iterations 1
smoothSolver:  Solving for Uy, Initial residual = 0.0066388139, Final residual = 2.6109502e-07, No Iterations 1
smoothSolver:  Solving for Uz, Initial residual = 0.006316321, Final residual = 3.2391564e-07, No Iterations 1
DICPCG:  Solving for p, Initial residual = 0.085161296, Final residual = 0.0040787215, No Iterations 2
DICPCG:  Solving for p, Initial residual = 0.01785819, Final residual = 0.0007484454, No Iterations 15
DICPCG:  Solving for p, Initial residual = 0.0048464557, Final residual = 0.00024137186, No Iterations 105
time step continuity errors : sum local = 4.4918091e-09, global = -2.5948983e-12, cumulative = -6.8832329e-08
DICPCG:  Solving for p, Initial residual = 0.0030300883, Final residual = 0.00015016322, No Iterations 10
DICPCG:  Solving for p, Initial residual = 0.00091660903, Final residual = 4.2266085e-05, No Iterations 48
DICPCG:  Solving for p, Initial residual = 0.0006846808, Final residual = 9.7967383e-07, No Iterations 175
time step continuity errors : sum local = 1.8353872e-11, global = -1.7779309e-14, cumulative = -6.8832347e-08
ExecutionTime = 6.98 s  ClockTime = 8 s

Time = 0.7

Courant Number mean: 0.00055737646 max: 0.070913636
smoothSolver:  Solving for Ux, Initial residual = 0.0037674996, Final residual = 1.7297849e-07, No Iterations 1
smoothSolver:  Solving for Uy, Initial residual = 0.0055161832, Final residual = 2.2553589e-07, No Iterations 1
smoothSolver:  Solving for Uz, Initial residual = 0.0052561196, Final residual = 2.7374032e-07, No Iterations 1
DICPCG:  Solving for p, Initial residual = 0.069104456, Final residual = 0.0030501515, No Iterations 2
DICPCG:  Solving for p, Initial residual = 0.013732775, Final residual = 0.00056930036, No Iterations 15
DICPCG:  Solving for p, Initial residual = 0.0036174504, Final residual = 0.00017668784, No Iterations 99
time step continuity errors : sum local = 2.896659e-09, global = -2.1544039e-12, cumulative = -6.8834501e-08
DICPCG:  Solving for p, Initial residual = 0.0022901285, Final residual = 0.0001119729, No Iterations 10
DICPCG:  Solving for p, Initial residual = 0.00068413026, Final residual = 3.2336814e-05, No Iterations 32
DICPCG:  Solving for p, Initial residual = 0.00039125713, Final residual = 9.8224635e-07, No Iterations 166
time step continuity errors : sum local = 1.6180389e-11, global = -8.28613e-15, cumulative = -6.883451e-08
ExecutionTime = 8.01 s  ClockTime = 9 s

Time = 0.8

Courant Number mean: 0.00055740093 max: 0.071228905
smoothSolver:  Solving for Ux, Initial residual = 0.0032468326, Final residual = 1.5220743e-07, No Iterations 1
smoothSolver:  Solving for Uy, Initial residual = 0.0047449659, Final residual = 2.0071077e-07, No Iterations 1
smoothSolver:  Solving for Uz, Initial residual = 0.0045297481, Final residual = 2.3840952e-07, No Iterations 1
DICPCG:  Solving for p, Initial residual = 0.05891946, Final residual = 0.0023744772, No Iterations 2
DICPCG:  Solving for p, Initial residual = 0.011172712, Final residual = 0.00050821901, No Iterations 14
DICPCG:  Solving for p, Initial residual = 0.0028486767, Final residual = 0.00013452564, No Iterations 94
time step continuity errors : sum local = 1.9773169e-09, global = -1.1901584e-11, cumulative = -6.8846411e-08
DICPCG:  Solving for p, Initial residual = 0.0017162887, Final residual = 7.9240956e-05, No Iterations 11
DICPCG:  Solving for p, Initial residual = 0.00051398114, Final residual = 2.5446458e-05, No Iterations 35
DICPCG:  Solving for p, Initial residual = 0.00031346173, Final residual = 8.9659337e-07, No Iterations 167
time step continuity errors : sum local = 1.3219572e-11, global = 7.8284469e-15, cumulative = -6.8846403e-08
ExecutionTime = 9.03 s  ClockTime = 10 s

Time = 0.9

Courant Number mean: 0.00055741752 max: 0.071540983
smoothSolver:  Solving for Ux, Initial residual = 0.0028605735, Final residual = 1.3712496e-07, No Iterations 1
smoothSolver:  Solving for Uy, Initial residual = 0.004177479, Final residual = 1.8239252e-07, No Iterations 1
smoothSolver:  Solving for Uz, Initial residual = 0.0039907185, Final residual = 2.1298905e-07, No Iterations 1
DICPCG:  Solving for p, Initial residual = 0.051371116, Final residual = 0.001953941, No Iterations 2
DICPCG:  Solving for p, Initial residual = 0.0094133482, Final residual = 0.00046974323, No Iterations 11
DICPCG:  Solving for p, Initial residual = 0.0023198396, Final residual = 0.0001072436, No Iterations 20
time step continuity errors : sum local = 1.4315771e-09, global = -4.6302195e-10, cumulative = -6.9309425e-08
DICPCG:  Solving for p, Initial residual = 0.00093210364, Final residual = 4.3551175e-05, No Iterations 111
DICPCG:  Solving for p, Initial residual = 0.00083835518, Final residual = 3.4345174e-05, No Iterations 6
DICPCG:  Solving for p, Initial residual = 0.00020860223, Final residual = 9.6324636e-07, No Iterations 99
time step continuity errors : sum local = 1.2883377e-11, global = -1.1481006e-12, cumulative = -6.9310573e-08
ExecutionTime = 9.88 s  ClockTime = 11 s

Time = 1

Courant Number mean: 0.00055742861 max: 0.071845463
smoothSolver:  Solving for Ux, Initial residual = 0.0025612901, Final residual = 1.2562974e-07, No Iterations 1
smoothSolver:  Solving for Uy, Initial residual = 0.0037395988, Final residual = 1.6773846e-07, No Iterations 1
smoothSolver:  Solving for Uz, Initial residual = 0.0035730856, Final residual = 1.9312066e-07, No Iterations 1
DICPCG:  Solving for p, Initial residual = 0.045689277, Final residual = 0.0016532771, No Iterations 2
DICPCG:  Solving for p, Initial residual = 0.0081057644, Final residual = 0.00036730436, No Iterations 8
DICPCG:  Solving for p, Initial residual = 0.0018906265, Final residual = 9.4392365e-05, No Iterations 15
time step continuity errors : sum local = 1.1560273e-09, global = -2.9362704e-10, cumulative = -6.9604201e-08
DICPCG:  Solving for p, Initial residual = 0.00071776495, Final residual = 3.5118486e-05, No Iterations 126
DICPCG:  Solving for p, Initial residual = 0.0006280051, Final residual = 2.9214559e-05, No Iterations 5
DICPCG:  Solving for p, Initial residual = 0.00015371168, Final residual = 9.5890885e-07, No Iterations 96
time step continuity errors : sum local = 1.1757718e-11, global = -1.529939e-12, cumulative = -6.960573e-08
ExecutionTime = 10.95 s  ClockTime = 12 s

Time = 1.1

Courant Number mean: 0.00055743458 max: 0.072140934
smoothSolver:  Solving for Ux, Initial residual = 0.0023223697, Final residual = 1.1684878e-07, No Iterations 1
smoothSolver:  Solving for Uy, Initial residual = 0.0033918086, Final residual = 1.5626075e-07, No Iterations 1
smoothSolver:  Solving for Uz, Initial residual = 0.003238551, Final residual = 1.7707435e-07, No Iterations 1
DICPCG:  Solving for p, Initial residual = 0.041112479, Final residual = 0.0014303724, No Iterations 2
DICPCG:  Solving for p, Initial residual = 0.0071371224, Final residual = 0.00031893207, No Iterations 6
DICPCG:  Solving for p, Initial residual = 0.0016381651, Final residual = 7.7355199e-05, No Iterations 15
time step continuity errors : sum local = 8.7621958e-10, global = -1.6487881e-10, cumulative = -6.9770609e-08
DICPCG:  Solving for p, Initial residual = 0.00062486906, Final residual = 3.0234211e-05, No Iterations 129
DICPCG:  Solving for p, Initial residual = 0.00043265484, Final residual = 1.9850527e-05, No Iterations 5
DICPCG:  Solving for p, Initial residual = 0.00010930673, Final residual = 9.0392089e-07, No Iterations 94
time step continuity errors : sum local = 1.0244163e-11, global = -1.5780642e-12, cumulative = -6.9772187e-08
ExecutionTime = 11.81 s  ClockTime = 13 s

Time = 1.2

Courant Number mean: 0.00055743702 max: 0.07242802
smoothSolver:  Solving for Ux, Initial residual = 0.0021274242, Final residual = 1.0909978e-07, No Iterations 1
smoothSolver:  Solving for Uy, Initial residual = 0.0031084481, Final residual = 1.46646e-07, No Iterations 1
smoothSolver:  Solving for Uz, Initial residual = 0.0029640752, Final residual = 1.6382967e-07, No Iterations 1
DICPCG:  Solving for p, Initial residual = 0.03748619, Final residual = 0.0012603553, No Iterations 2
DICPCG:  Solving for p, Initial residual = 0.0063576615, Final residual = 0.00027455083, No Iterations 6
DICPCG:  Solving for p, Initial residual = 0.0014538988, Final residual = 7.0003887e-05, No Iterations 11
time step continuity errors : sum local = 7.3806311e-10, global = -9.7980173e-11, cumulative = -6.9870168e-08
DICPCG:  Solving for p, Initial residual = 0.00051806016, Final residual = 2.4168534e-05, No Iterations 134
DICPCG:  Solving for p, Initial residual = 0.00034748826, Final residual = 1.5932515e-05, No Iterations 5
DICPCG:  Solving for p, Initial residual = 8.8812146e-05, Final residual = 9.2972948e-07, No Iterations 68
time step continuity errors : sum local = 9.8035729e-12, global = -1.5983691e-12, cumulative = -6.9871766e-08
ExecutionTime = 12.6 s  ClockTime = 13 s

Time = 1.3

Courant Number mean: 0.00055743703 max: 0.072710738
smoothSolver:  Solving for Ux, Initial residual = 0.0019659959, Final residual = 1.0264716e-07, No Iterations 1
smoothSolver:  Solving for Uy, Initial residual = 0.0028728368, Final residual = 1.3835789e-07, No Iterations 1
smoothSolver:  Solving for Uz, Initial residual = 0.0027354712, Final residual = 1.5242769e-07, No Iterations 1
DICPCG:  Solving for p, Initial residual = 0.034390872, Final residual = 0.0011398205, No Iterations 2
DICPCG:  Solving for p, Initial residual = 0.0057228466, Final residual = 0.00024001249, No Iterations 6
DICPCG:  Solving for p, Initial residual = 0.0012972689, Final residual = 6.1124077e-05, No Iterations 9
time step continuity errors : sum local = 6.0313975e-10, global = -3.0340514e-11, cumulative = -6.9902106e-08
DICPCG:  Solving for p, Initial residual = 0.00044479067, Final residual = 2.1852982e-05, No Iterations 23
DICPCG:  Solving for p, Initial residual = 0.00020602562, Final residual = 1.0207638e-05, No Iterations 128
DICPCG:  Solving for p, Initial residual = 0.0001498848, Final residual = 9.4801163e-07, No Iterations 59
time step continuity errors : sum local = 9.352504e-12, global = 1.1538555e-12, cumulative = -6.9900953e-08
ExecutionTime = 13.4 s  ClockTime = 14 s

Time = 1.4

Courant Number mean: 0.00055743612 max: 0.072972094
smoothSolver:  Solving for Ux, Initial residual = 0.0018294333, Final residual = 9.7317306e-08, No Iterations 1
smoothSolver:  Solving for Uy, Initial residual = 0.0026743093, Final residual = 1.3121413e-07, No Iterations 1
smoothSolver:  Solving for Uz, Initial residual = 0.0025428827, Final residual = 1.4248293e-07, No Iterations 1
DICPCG:  Solving for p, Initial residual = 0.031773047, Final residual = 0.0010170238, No Iterations 2
DICPCG:  Solving for p, Initial residual = 0.0051899856, Final residual = 0.00021850005, No Iterations 6
DICPCG:  Solving for p, Initial residual = 0.0011707823, Final residual = 5.5567305e-05, No Iterations 11
time step continuity errors : sum local = 5.1560436e-10, global = -8.8601513e-12, cumulative = -6.9909813e-08
DICPCG:  Solving for p, Initial residual = 0.00041738351, Final residual = 1.9264458e-05, No Iterations 16
DICPCG:  Solving for p, Initial residual = 0.0001713459, Final residual = 8.530796e-06, No Iterations 45
DICPCG:  Solving for p, Initial residual = 0.00011395719, Final residual = 9.388866e-07, No Iterations 154
time step continuity errors : sum local = 8.7085952e-12, global = 2.1845398e-14, cumulative = -6.9909791e-08
ExecutionTime = 14.22 s  ClockTime = 15 s

Time = 1.5

Courant Number mean: 0.00055743399 max: 0.073221065
smoothSolver:  Solving for Ux, Initial residual = 0.0017127018, Final residual = 9.1558489e-08, No Iterations 1
smoothSolver:  Solving for Uy, Initial residual = 0.0025043913, Final residual = 1.2515076e-07, No Iterations 1
smoothSolver:  Solving for Uz, Initial residual = 0.0023784814, Final residual = 1.3375083e-07, No Iterations 1
DICPCG:  Solving for p, Initial residual = 0.029648425, Final residual = 0.00092845633, No Iterations 2
DICPCG:  Solving for p, Initial residual = 0.0047923364, Final residual = 0.00021361693, No Iterations 6
DICPCG:  Solving for p, Initial residual = 0.0010798451, Final residual = 5.2147457e-05, No Iterations 14
time step continuity errors : sum local = 4.5686036e-10, global = 1.813592e-11, cumulative = -6.9891655e-08
DICPCG:  Solving for p, Initial residual = 0.00041132828, Final residual = 1.9693248e-05, No Iterations 20
DICPCG:  Solving for p, Initial residual = 0.00016139775, Final residual = 7.702548e-06, No Iterations 125
DICPCG:  Solving for p, Initial residual = 0.00010875543, Final residual = 9.49239e-07, No Iterations 46
time step continuity errors : sum local = 8.3116048e-12, global = -6.717438e-13, cumulative = -6.9892327e-08
ExecutionTime = 15.19 s  ClockTime = 16 s

Time = 1.6

Courant Number mean: 0.00055743154 max: 0.07345848
smoothSolver:  Solving for Ux, Initial residual = 0.0016108585, Final residual = 8.6989104e-08, No Iterations 1
smoothSolver:  Solving for Uy, Initial residual = 0.0023566948, Final residual = 1.1937011e-07, No Iterations 1
smoothSolver:  Solving for Uz, Initial residual = 0.0022363839, Final residual = 1.2650389e-07, No Iterations 1
DICPCG:  Solving for p, Initial residual = 0.027673024, Final residual = 0.00085584535, No Iterations 2
DICPCG:  Solving for p, Initial residual = 0.004399806, Final residual = 0.0002115403, No Iterations 6
DICPCG:  Solving for p, Initial residual = 0.0010007934, Final residual = 4.6260562e-05, No Iterations 15
time step continuity errors : sum local = 3.8406872e-10, global = 4.3380472e-11, cumulative = -6.9848946e-08
DICPCG:  Solving for p, Initial residual = 0.00039269906, Final residual = 1.9516547e-05, No Iterations 123
DICPCG:  Solving for p, Initial residual = 0.00021505423, Final residual = 1.060562e-05, No Iterations 11
DICPCG:  Solving for p, Initial residual = 6.921052e-05, Final residual = 9.2775032e-07, No Iterations 52
time step continuity errors : sum local = 7.6968825e-12, global = 6.7760884e-13, cumulative = -6.9848269e-08
ExecutionTime = 15.96 s  ClockTime = 17 s

Time = 1.7

Courant Number mean: 0.00055742982 max: 0.07368206
smoothSolver:  Solving for Ux, Initial residual = 0.0015218733, Final residual = 8.3247438e-08, No Iterations 1
smoothSolver:  Solving for Uy, Initial residual = 0.0022275722, Final residual = 1.1415142e-07, No Iterations 1
smoothSolver:  Solving for Uz, Initial residual = 0.0021129468, Final residual = 1.2018859e-07, No Iterations 1
DICPCG:  Solving for p, Initial residual = 0.026020376, Final residual = 0.00079497733, No Iterations 2
DICPCG:  Solving for p, Initial residual = 0.0040841201, Final residual = 0.00019671247, No Iterations 7
DICPCG:  Solving for p, Initial residual = 0.00092271853, Final residual = 4.4977695e-05, No Iterations 16
time step continuity errors : sum local = 3.5494703e-10, global = 5.5794519e-11, cumulative = -6.9792474e-08
DICPCG:  Solving for p, Initial residual = 0.0003599752, Final residual = 1.6926896e-05, No Iterations 120
DICPCG:  Solving for p, Initial residual = 0.00021909792, Final residual = 1.070923e-05, No Iterations 10
DICPCG:  Solving for p, Initial residual = 6.696714e-05, Final residual = 9.4682612e-07, No Iterations 52
time step continuity errors : sum local = 7.4656936e-12, global = 2.774267e-13, cumulative = -6.9792197e-08
ExecutionTime = 16.71 s  ClockTime = 18 s

Time = 1.8

Courant Number mean: 0.00055742754 max: 0.073895001
smoothSolver:  Solving for Ux, Initial residual = 0.0014432098, Final residual = 8.0016506e-08, No Iterations 1
smoothSolver:  Solving for Uy, Initial residual = 0.0021133, Final residual = 1.0938262e-07, No Iterations 1
smoothSolver:  Solving for Uz, Initial residual = 0.0020038484, Final residual = 1.1449549e-07, No Iterations 1
DICPCG:  Solving for p, Initial residual = 0.024563108, Final residual = 0.00073925673, No Iterations 2
DICPCG:  Solving for p, Initial residual = 0.0038118861, Final residual = 0.00016173869, No Iterations 8
DICPCG:  Solving for p, Initial residual = 0.00085445305, Final residual = 4.1027549e-05, No Iterations 21
time step continuity errors : sum local = 3.0859857e-10, global = 6.7648648e-11, cumulative = -6.9724548e-08
DICPCG:  Solving for p, Initial residual = 0.00034698061, Final residual = 1.7178925e-05, No Iterations 120
DICPCG:  Solving for p, Initial residual = 0.00022691235, Final residual = 1.1009981e-05, No Iterations 6
DICPCG:  Solving for p, Initial residual = 6.3071405e-05, Final residual = 8.7675744e-07, No Iterations 54
time step continuity errors : sum local = 6.5886865e-12, global = 4.4350827e-13, cumulative = -6.9724104e-08
ExecutionTime = 17.47 s  ClockTime = 18 s

Time = 1.9

Courant Number mean: 0.00055742535 max: 0.07409858
smoothSolver:  Solving for Ux, Initial residual = 0.0013731575, Final residual = 7.708809e-08, No Iterations 1
smoothSolver:  Solving for Uy, Initial residual = 0.0020112287, Final residual = 1.0523848e-07, No Iterations 1
smoothSolver:  Solving for Uz, Initial residual = 0.0019071736, Final residual = 1.0988966e-07, No Iterations 1
DICPCG:  Solving for p, Initial residual = 0.023221232, Final residual = 0.00069050617, No Iterations 2
DICPCG:  Solving for p, Initial residual = 0.0035614225, Final residual = 0.0001689088, No Iterations 8
DICPCG:  Solving for p, Initial residual = 0.00080637705, Final residual = 3.7631451e-05, No Iterations 22
time step continuity errors : sum local = 2.7049938e-10, global = 6.9783137e-11, cumulative = -6.9654321e-08
DICPCG:  Solving for p, Initial residual = 0.00033545765, Final residual = 1.552808e-05, No Iterations 119
DICPCG:  Solving for p, Initial residual = 0.00023304858, Final residual = 1.0898482e-05, No Iterations 6
DICPCG:  Solving for p, Initial residual = 6.322371e-05, Final residual = 9.7869137e-07, No Iterations 43
time step continuity errors : sum local = 7.028234e-12, global = 2.7242496e-13, cumulative = -6.9654049e-08
ExecutionTime = 18.23 s  ClockTime = 19 s

Time = 2

Courant Number mean: 0.00055742313 max: 0.074292159
smoothSolver:  Solving for Ux, Initial residual = 0.0013103519, Final residual = 7.4354754e-08, No Iterations 1
smoothSolver:  Solving for Uy, Initial residual = 0.0019195505, Final residual = 1.01848e-07, No Iterations 1
smoothSolver:  Solving for Uz, Initial residual = 0.0018206969, Final residual = 1.0563204e-07, No Iterations 1
DICPCG:  Solving for p, Initial residual = 0.022022836, Final residual = 0.00064654055, No Iterations 2
DICPCG:  Solving for p, Initial residual = 0.0033242188, Final residual = 0.00016070319, No Iterations 11
DICPCG:  Solving for p, Initial residual = 0.00079395279, Final residual = 3.8785487e-05, No Iterations 16
time step continuity errors : sum local = 2.670935e-10, global = 7.0483025e-11, cumulative = -6.9583566e-08
DICPCG:  Solving for p, Initial residual = 0.00032049012, Final residual = 1.4431257e-05, No Iterations 123
DICPCG:  Solving for p, Initial residual = 0.00024434515, Final residual = 1.0441616e-05, No Iterations 5
DICPCG:  Solving for p, Initial residual = 6.3031553e-05, Final residual = 9.4486496e-07, No Iterations 45
time step continuity errors : sum local = 6.5003107e-12, global = 1.6574883e-13, cumulative = -6.95834e-08
ExecutionTime = 19.16 s  ClockTime = 20 s

Time = 2.1

Courant Number mean: 0.00055742085 max: 0.074478404
smoothSolver:  Solving for Ux, Initial residual = 0.0012538, Final residual = 7.1787167e-08, No Iterations 1
smoothSolver:  Solving for Uy, Initial residual = 0.00183714, Final residual = 9.8730689e-08, No Iterations 1
smoothSolver:  Solving for Uz, Initial residual = 0.0017427448, Final residual = 1.0177188e-07, No Iterations 1
DICPCG:  Solving for p, Initial residual = 0.020960966, Final residual = 0.00060048238, No Iterations 2
DICPCG:  Solving for p, Initial residual = 0.0031341795, Final residual = 0.00012891313, No Iterations 14
DICPCG:  Solving for p, Initial residual = 0.00076048893, Final residual = 3.6625462e-05, No Iterations 19
time step continuity errors : sum local = 2.4213894e-10, global = 7.1277381e-11, cumulative = -6.9512123e-08
DICPCG:  Solving for p, Initial residual = 0.00029537442, Final residual = 1.4563853e-05, No Iterations 118
DICPCG:  Solving for p, Initial residual = 0.00023767085, Final residual = 1.0398701e-05, No Iterations 5
DICPCG:  Solving for p, Initial residual = 6.1772356e-05, Final residual = 9.415906e-07, No Iterations 45
time step continuity errors : sum local = 6.2186619e-12, global = 5.5954784e-14, cumulative = -6.9512067e-08
ExecutionTime = 19.9 s  ClockTime = 21 s

Time = 2.2

Courant Number mean: 0.00055741805 max: 0.074656666
smoothSolver:  Solving for Ux, Initial residual = 0.0012023347, Final residual = 6.9413625e-08, No Iterations 1
smoothSolver:  Solving for Uy, Initial residual = 0.0017624058, Final residual = 9.5357938e-08, No Iterations 1
smoothSolver:  Solving for Uz, Initial residual = 0.0016719407, Final residual = 9.8074324e-08, No Iterations 1
DICPCG:  Solving for p, Initial residual = 0.020061653, Final residual = 0.00057024668, No Iterations 2
DICPCG:  Solving for p, Initial residual = 0.0029747384, Final residual = 0.00012455715, No Iterations 14
DICPCG:  Solving for p, Initial residual = 0.00072390288, Final residual = 3.4929738e-05, No Iterations 20
time step continuity errors : sum local = 2.221131e-10, global = 7.6828913e-11, cumulative = -6.9435238e-08
DICPCG:  Solving for p, Initial residual = 0.00028482754, Final residual = 1.3849459e-05, No Iterations 117
DICPCG:  Solving for p, Initial residual = 0.00025706647, Final residual = 1.2830592e-05, No Iterations 4
DICPCG:  Solving for p, Initial residual = 6.6004787e-05, Final residual = 9.9115787e-07, No Iterations 46
time step continuity errors : sum local = 6.2956712e-12, global = 1.4358322e-14, cumulative = -6.9435224e-08
ExecutionTime = 20.64 s  ClockTime = 22 s

Time = 2.3

Courant Number mean: 0.00055741488 max: 0.074825783
smoothSolver:  Solving for Ux, Initial residual = 0.0011553913, Final residual = 6.7432465e-08, No Iterations 1
smoothSolver:  Solving for Uy, Initial residual = 0.0016945039, Final residual = 9.2789166e-08, No Iterations 1
smoothSolver:  Solving for Uz, Initial residual = 0.0016073372, Final residual = 9.457801e-08, No Iterations 1
DICPCG:  Solving for p, Initial residual = 0.019182046, Final residual = 0.00054762804, No Iterations 2
DICPCG:  Solving for p, Initial residual = 0.0028246012, Final residual = 0.00012346383, No Iterations 14
DICPCG:  Solving for p, Initial residual = 0.00069927985, Final residual = 3.4086888e-05, No Iterations 20
time step continuity errors : sum local = 2.0883708e-10, global = 7.0861347e-11, cumulative = -6.9364362e-08
DICPCG:  Solving for p, Initial residual = 0.00027877168, Final residual = 1.2819941e-05, No Iterations 118
DICPCG:  Solving for p, Initial residual = 0.00025032216, Final residual = 1.2177712e-05, No Iterations 4
DICPCG:  Solving for p, Initial residual = 6.3955159e-05, Final residual = 9.1328005e-07, No Iterations 46
time step continuity errors : sum local = 5.5893781e-12, global = 8.3654265e-15, cumulative = -6.9364354e-08
ExecutionTime = 21.4 s  ClockTime = 22 s

Time = 2.4

Courant Number mean: 0.00055741156 max: 0.074987026
smoothSolver:  Solving for Ux, Initial residual = 0.0011122945, Final residual = 6.5443813e-08, No Iterations 1
smoothSolver:  Solving for Uy, Initial residual = 0.001632768, Final residual = 9.0269992e-08, No Iterations 1
smoothSolver:  Solving for Uz, Initial residual = 0.001548023, Final residual = 9.1335924e-08, No Iterations 1
DICPCG:  Solving for p, Initial residual = 0.01843474, Final residual = 0.00051895841, No Iterations 2
DICPCG:  Solving for p, Initial residual = 0.0026976949, Final residual = 0.00012640398, No Iterations 14
DICPCG:  Solving for p, Initial residual = 0.00068510963, Final residual = 3.4121818e-05, No Iterations 22
time step continuity errors : sum local = 2.0172089e-10, global = 7.609105e-11, cumulative = -6.9288263e-08
DICPCG:  Solving for p, Initial residual = 0.00027782643, Final residual = 1.2663695e-05, No Iterations 118
DICPCG:  Solving for p, Initial residual = 0.00027183245, Final residual = 1.2546039e-05, No Iterations 4
DICPCG:  Solving for p, Initial residual = 6.8544265e-05, Final residual = 9.741901e-07, No Iterations 47
time step continuity errors : sum local = 5.7526438e-12, global = 2.989973e-14, cumulative = -6.9288233e-08
ExecutionTime = 22.15 s  ClockTime = 23 s

Time = 2.5

Courant Number mean: 0.00055740886 max: 0.07514086
smoothSolver:  Solving for Ux, Initial residual = 0.0010721581, Final residual = 6.3332491e-08, No Iterations 1
smoothSolver:  Solving for Uy, Initial residual = 0.0015756713, Final residual = 8.7535222e-08, No Iterations 1
smoothSolver:  Solving for Uz, Initial residual = 0.0014933276, Final residual = 8.8319291e-08, No Iterations 1
DICPCG:  Solving for p, Initial residual = 0.017757291, Final residual = 0.00049636901, No Iterations 2
DICPCG:  Solving for p, Initial residual = 0.0025643428, Final residual = 0.00011898174, No Iterations 14
DICPCG:  Solving for p, Initial residual = 0.00065321753, Final residual = 3.1489984e-05, No Iterations 123
time step continuity errors : sum local = 1.7986915e-10, global = -8.0696247e-14, cumulative = -6.9288314e-08
DICPCG:  Solving for p, Initial residual = 0.00038784314, Final residual = 1.710153e-05, No Iterations 8
DICPCG:  Solving for p, Initial residual = 0.00011026772, Final residual = 5.4274598e-06, No Iterations 27
DICPCG:  Solving for p, Initial residual = 5.4932085e-05, Final residual = 9.8199012e-07, No Iterations 80
time step continuity errors : sum local = 5.60262e-12, global = 1.088652e-12, cumulative = -6.9287225e-08
ExecutionTime = 23.27 s  ClockTime = 24 s

Time = 2.6

Courant Number mean: 0.00055740642 max: 0.075287079
smoothSolver:  Solving for Ux, Initial residual = 0.0010349047, Final residual = 6.1205184e-08, No Iterations 1
smoothSolver:  Solving for Uy, Initial residual = 0.0015231391, Final residual = 8.495718e-08, No Iterations 1
smoothSolver:  Solving for Uz, Initial residual = 0.0014425207, Final residual = 8.506684e-08, No Iterations 1
DICPCG:  Solving for p, Initial residual = 0.017148232, Final residual = 0.00048767789, No Iterations 2
DICPCG:  Solving for p, Initial residual = 0.0024572517, Final residual = 0.00012159539, No Iterations 14
DICPCG:  Solving for p, Initial residual = 0.00064507689, Final residual = 2.9430915e-05, No Iterations 125
time step continuity errors : sum local = 1.6263513e-10, global = 3.7633466e-13, cumulative = -6.9286849e-08
DICPCG:  Solving for p, Initial residual = 0.00040236402, Final residual = 1.6972043e-05, No Iterations 8
DICPCG:  Solving for p, Initial residual = 0.00011194292, Final residual = 5.3126093e-06, No Iterations 16
DICPCG:  Solving for p, Initial residual = 4.6425568e-05, Final residual = 9.9051208e-07, No Iterations 46
time step continuity errors : sum local = 5.4668922e-12, global = 7.9862785e-13, cumulative = -6.928605e-08
ExecutionTime = 24.03 s  ClockTime = 25 s

Time = 2.7

Courant Number mean: 0.000557404 max: 0.075426127
smoothSolver:  Solving for Ux, Initial residual = 0.0010006137, Final residual = 5.9132949e-08, No Iterations 1
smoothSolver:  Solving for Uy, Initial residual = 0.0014743582, Final residual = 8.2219332e-08, No Iterations 1
smoothSolver:  Solving for Uz, Initial residual = 0.0013953875, Final residual = 8.170279e-08, No Iterations 1
DICPCG:  Solving for p, Initial residual = 0.01647527, Final residual = 0.00048531244, No Iterations 2
DICPCG:  Solving for p, Initial residual = 0.0023577515, Final residual = 9.7372786e-05, No Iterations 15
DICPCG:  Solving for p, Initial residual = 0.00061971384, Final residual = 3.0678407e-05, No Iterations 124
time step continuity errors : sum local = 1.6424004e-10, global = 1.6945279e-13, cumulative = -6.9285881e-08
DICPCG:  Solving for p, Initial residual = 0.00040499468, Final residual = 1.9313581e-05, No Iterations 8
DICPCG:  Solving for p, Initial residual = 0.00011295201, Final residual = 5.4718472e-06, No Iterations 16
DICPCG:  Solving for p, Initial residual = 4.704656e-05, Final residual = 8.4906328e-07, No Iterations 47
time step continuity errors : sum local = 4.5398914e-12, global = 6.9654799e-13, cumulative = -6.9285184e-08
ExecutionTime = 24.81 s  ClockTime = 26 s

Time = 2.8

Courant Number mean: 0.00055740164 max: 0.075558642
smoothSolver:  Solving for Ux, Initial residual = 0.00096877869, Final residual = 5.7127003e-08, No Iterations 1
smoothSolver:  Solving for Uy, Initial residual = 0.0014291064, Final residual = 7.9542851e-08, No Iterations 1
smoothSolver:  Solving for Uz, Initial residual = 0.0013517903, Final residual = 7.8765508e-08, No Iterations 1
DICPCG:  Solving for p, Initial residual = 0.015918261, Final residual = 0.00048982584, No Iterations 2
DICPCG:  Solving for p, Initial residual = 0.0022787292, Final residual = 9.8468925e-05, No Iterations 15
DICPCG:  Solving for p, Initial residual = 0.0006099746, Final residual = 3.0497476e-05, No Iterations 125
time step continuity errors : sum local = 1.5836196e-10, global = 3.6068338e-13, cumulative = -6.9284823e-08
DICPCG:  Solving for p, Initial residual = 0.00040880312, Final residual = 1.9146435e-05, No Iterations 8
DICPCG:  Solving for p, Initial residual = 0.00011310328, Final residual = 5.2990458e-06, No Iterations 16
DICPCG:  Solving for p, Initial residual = 4.7326244e-05, Final residual = 9.2727757e-07, No Iterations 47
time step continuity errors : sum local = 4.8090824e-12, global = 4.4254893e-13, cumulative = -6.9284381e-08
ExecutionTime = 25.58 s  ClockTime = 27 s

Time = 2.9

Courant Number mean: 0.00055739928 max: 0.075685026
smoothSolver:  Solving for Ux, Initial residual = 0.00093910844, Final residual = 5.5398677e-08, No Iterations 1
smoothSolver:  Solving for Uy, Initial residual = 0.0013872049, Final residual = 7.748627e-08, No Iterations 1
smoothSolver:  Solving for Uz, Initial residual = 0.0013110434, Final residual = 7.6423325e-08, No Iterations 1
DICPCG:  Solving for p, Initial residual = 0.015239621, Final residual = 0.00046065395, No Iterations 2
DICPCG:  Solving for p, Initial residual = 0.0021590223, Final residual = 9.7990175e-05, No Iterations 15
DICPCG:  Solving for p, Initial residual = 0.00058535918, Final residual = 2.7088933e-05, No Iterations 126
time step continuity errors : sum local = 1.3662498e-10, global = 1.8518514e-13, cumulative = -6.9284196e-08
DICPCG:  Solving for p, Initial residual = 0.00038011088, Final residual = 1.8035316e-05, No Iterations 8
DICPCG:  Solving for p, Initial residual = 0.00010527668, Final residual = 5.156802e-06, No Iterations 15
DICPCG:  Solving for p, Initial residual = 4.3059224e-05, Final residual = 8.9767555e-07, No Iterations 46
time step continuity errors : sum local = 4.5224107e-12, global = 4.0754273e-13, cumulative = -6.9283788e-08
ExecutionTime = 26.34 s  ClockTime = 27 s

Time = 3

Courant Number mean: 0.00055739696 max: 0.075806778
smoothSolver:  Solving for Ux, Initial residual = 0.00091151198, Final residual = 5.3809883e-08, No Iterations 1
smoothSolver:  Solving for Uy, Initial residual = 0.001348397, Final residual = 7.570067e-08, No Iterations 1
smoothSolver:  Solving for Uz, Initial residual = 0.0012727213, Final residual = 7.4227068e-08, No Iterations 1
DICPCG:  Solving for p, Initial residual = 0.014717172, Final residual = 0.00043560489, No Iterations 2
DICPCG:  Solving for p, Initial residual = 0.0020773593, Final residual = 9.4829914e-05, No Iterations 15
DICPCG:  Solving for p, Initial residual = 0.0005678512, Final residual = 2.6477958e-05, No Iterations 127
time step continuity errors : sum local = 1.2985792e-10, global = 2.4697035e-13, cumulative = -6.9283541e-08
DICPCG:  Solving for p, Initial residual = 0.00037367778, Final residual = 1.8049264e-05, No Iterations 8
DICPCG:  Solving for p, Initial residual = 0.00010397796, Final residual = 5.0169732e-06, No Iterations 27
DICPCG:  Solving for p, Initial residual = 4.8978163e-05, Final residual = 9.4307317e-07, No Iterations 47
time step continuity errors : sum local = 4.6201214e-12, global = 4.6233925e-13, cumulative = -6.9283079e-08
ExecutionTime = 27.37 s  ClockTime = 28 s

Time = 3.1

Courant Number mean: 0.00055739523 max: 0.07592496
smoothSolver:  Solving for Ux, Initial residual = 0.00088569416, Final residual = 5.2161494e-08, No Iterations 1
smoothSolver:  Solving for Uy, Initial residual = 0.0013118127, Final residual = 7.3838508e-08, No Iterations 1
smoothSolver:  Solving for Uz, Initial residual = 0.0012368446, Final residual = 7.2018368e-08, No Iterations 1
DICPCG:  Solving for p, Initial residual = 0.014300201, Final residual = 0.00043600819, No Iterations 2
DICPCG:  Solving for p, Initial residual = 0.0020124685, Final residual = 9.5440198e-05, No Iterations 15
DICPCG:  Solving for p, Initial residual = 0.00056042958, Final residual = 2.7812766e-05, No Iterations 126
time step continuity errors : sum local = 1.327736e-10, global = 2.188081e-13, cumulative = -6.928286e-08
DICPCG:  Solving for p, Initial residual = 0.00037199781, Final residual = 1.8540616e-05, No Iterations 8
DICPCG:  Solving for p, Initial residual = 0.00010460613, Final residual = 5.0544355e-06, No Iterations 16
DICPCG:  Solving for p, Initial residual = 4.3754863e-05, Final residual = 9.4391454e-07, No Iterations 47
time step continuity errors : sum local = 4.5012147e-12, global = 4.453789e-13, cumulative = -6.9282415e-08
ExecutionTime = 28.21 s  ClockTime = 29 s

Time = 3.2

Courant Number mean: 0.00055739352 max: 0.076042175
smoothSolver:  Solving for Ux, Initial residual = 0.00086136289, Final residual = 5.0470913e-08, No Iterations 1
smoothSolver:  Solving for Uy, Initial residual = 0.0012776358, Final residual = 7.2399628e-08, No Iterations 1
smoothSolver:  Solving for Uz, Initial residual = 0.0012030741, Final residual = 7.0098064e-08, No Iterations 1
DICPCG:  Solving for p, Initial residual = 0.013825041, Final residual = 0.00043822062, No Iterations 2
DICPCG:  Solving for p, Initial residual = 0.0019409713, Final residual = 9.4962444e-05, No Iterations 15
DICPCG:  Solving for p, Initial residual = 0.00055019642, Final residual = 2.6267164e-05, No Iterations 127
time step continuity errors : sum local = 1.2217362e-10, global = 1.7419659e-13, cumulative = -6.928224e-08
DICPCG:  Solving for p, Initial residual = 0.00036853287, Final residual = 1.801676e-05, No Iterations 8
DICPCG:  Solving for p, Initial residual = 0.00010264062, Final residual = 5.1251331e-06, No Iterations 27
DICPCG:  Solving for p, Initial residual = 4.8780564e-05, Final residual = 9.8327234e-07, No Iterations 47
time step continuity errors : sum local = 4.5685069e-12, global = 3.8114435e-13, cumulative = -6.9281859e-08
ExecutionTime = 29.02 s  ClockTime = 30 s

Time = 3.3

Courant Number mean: 0.00055739165 max: 0.07615493
smoothSolver:  Solving for Ux, Initial residual = 0.00083858075, Final residual = 4.9093148e-08, No Iterations 1
smoothSolver:  Solving for Uy, Initial residual = 0.0012453476, Final residual = 7.1079419e-08, No Iterations 1
smoothSolver:  Solving for Uz, Initial residual = 0.0011712958, Final residual = 6.8100265e-08, No Iterations 1
DICPCG:  Solving for p, Initial residual = 0.013288714, Final residual = 0.00041290433, No Iterations 2
DICPCG:  Solving for p, Initial residual = 0.0018521702, Final residual = 8.5604404e-05, No Iterations 16
DICPCG:  Solving for p, Initial residual = 0.00052253998, Final residual = 2.546699e-05, No Iterations 127
time step continuity errors : sum local = 1.1553339e-10, global = 2.134759e-13, cumulative = -6.9281646e-08
DICPCG:  Solving for p, Initial residual = 0.00034990747, Final residual = 1.5383634e-05, No Iterations 9
DICPCG:  Solving for p, Initial residual = 9.8689687e-05, Final residual = 4.6191104e-06, No Iterations 27
DICPCG:  Solving for p, Initial residual = 4.4665368e-05, Final residual = 9.4407418e-07, No Iterations 46
time step continuity errors : sum local = 4.2785588e-12, global = 3.1329669e-13, cumulative = -6.9281332e-08
ExecutionTime = 29.88 s  ClockTime = 31 s

Time = 3.4

Courant Number mean: 0.00055738972 max: 0.076263334
smoothSolver:  Solving for Ux, Initial residual = 0.00081749788, Final residual = 4.7788186e-08, No Iterations 1
smoothSolver:  Solving for Uy, Initial residual = 0.0012148944, Final residual = 6.9639175e-08, No Iterations 1
smoothSolver:  Solving for Uz, Initial residual = 0.0011416418, Final residual = 6.6209921e-08, No Iterations 1
DICPCG:  Solving for p, Initial residual = 0.012960721, Final residual = 0.00040106122, No Iterations 2
DICPCG:  Solving for p, Initial residual = 0.0018011101, Final residual = 8.2779964e-05, No Iterations 16
DICPCG:  Solving for p, Initial residual = 0.00051506415, Final residual = 2.5450945e-05, No Iterations 126
time step continuity errors : sum local = 1.127086e-10, global = 1.9716213e-13, cumulative = -6.9281135e-08
DICPCG:  Solving for p, Initial residual = 0.00034908138, Final residual = 1.5345247e-05, No Iterations 9
DICPCG:  Solving for p, Initial residual = 9.8371988e-05, Final residual = 4.4314933e-06, No Iterations 27
DICPCG:  Solving for p, Initial residual = 4.460185e-05, Final residual = 9.4460406e-07, No Iterations 46
time step continuity errors : sum local = 4.1788896e-12, global = 2.0723448e-13, cumulative = -6.9280928e-08
ExecutionTime = 30.54 s  ClockTime = 32 s

Time = 3.5

Courant Number mean: 0.00055738797 max: 0.076368876
smoothSolver:  Solving for Ux, Initial residual = 0.00079760526, Final residual = 4.6604532e-08, No Iterations 1
smoothSolver:  Solving for Uy, Initial residual = 0.0011861197, Final residual = 6.8368156e-08, No Iterations 1
smoothSolver:  Solving for Uz, Initial residual = 0.0011137496, Final residual = 6.4506096e-08, No Iterations 1
DICPCG:  Solving for p, Initial residual = 0.012528934, Final residual = 0.00039663109, No Iterations 2
DICPCG:  Solving for p, Initial residual = 0.0017370061, Final residual = 8.1174508e-05, No Iterations 16
DICPCG:  Solving for p, Initial residual = 0.00050125211, Final residual = 2.4735809e-05, No Iterations 126
time step continuity errors : sum local = 1.070219e-10, global = 1.794701e-13, cumulative = -6.9280749e-08
DICPCG:  Solving for p, Initial residual = 0.00034256123, Final residual = 1.5089027e-05, No Iterations 9
DICPCG:  Solving for p, Initial residual = 9.6072661e-05, Final residual = 4.2685388e-06, No Iterations 27
DICPCG:  Solving for p, Initial residual = 4.3155011e-05, Final residual = 9.2696e-07, No Iterations 46
time step continuity errors : sum local = 4.0066051e-12, global = 1.7024631e-13, cumulative = -6.9280578e-08
ExecutionTime = 31.34 s  ClockTime = 32 s

Time = 3.6

Courant Number mean: 0.00055738626 max: 0.076471411
smoothSolver:  Solving for Ux, Initial residual = 0.00077860487, Final residual = 4.5241082e-08, No Iterations 1
smoothSolver:  Solving for Uy, Initial residual = 0.001158836, Final residual = 6.6980442e-08, No Iterations 1
smoothSolver:  Solving for Uz, Initial residual = 0.0010872611, Final residual = 6.2716734e-08, No Iterations 1
DICPCG:  Solving for p, Initial residual = 0.012225117, Final residual = 0.00038825201, No Iterations 2
DICPCG:  Solving for p, Initial residual = 0.001696675, Final residual = 8.088864e-05, No Iterations 16
DICPCG:  Solving for p, Initial residual = 0.0004957313, Final residual = 2.3933871e-05, No Iterations 127
time step continuity errors : sum local = 1.0125383e-10, global = 1.8884205e-13, cumulative = -6.9280389e-08
DICPCG:  Solving for p, Initial residual = 0.00032906126, Final residual = 1.4476029e-05, No Iterations 9
DICPCG:  Solving for p, Initial residual = 9.2405286e-05, Final residual = 4.465397e-06, No Iterations 27
DICPCG:  Solving for p, Initial residual = 4.225384e-05, Final residual = 9.6998789e-07, No Iterations 46
time step continuity errors : sum local = 4.0998239e-12, global = 2.6167053e-13, cumulative = -6.9280128e-08
ExecutionTime = 31.99 s  ClockTime = 33 s

Time = 3.7

Courant Number mean: 0.00055738439 max: 0.076571235
smoothSolver:  Solving for Ux, Initial residual = 0.00076055775, Final residual = 4.4088718e-08, No Iterations 1
smoothSolver:  Solving for Uy, Initial residual = 0.0011328657, Final residual = 6.5618025e-08, No Iterations 1
smoothSolver:  Solving for Uz, Initial residual = 0.0010624246, Final residual = 6.1068996e-08, No Iterations 1
DICPCG:  Solving for p, Initial residual = 0.011844507, Final residual = 0.0003861272, No Iterations 2
DICPCG:  Solving for p, Initial residual = 0.0016404221, Final residual = 8.0343508e-05, No Iterations 18
DICPCG:  Solving for p, Initial residual = 0.00048653919, Final residual = 2.4203233e-05, No Iterations 124
time step continuity errors : sum local = 1.0021181e-10, global = 1.6533743e-13, cumulative = -6.9279962e-08
DICPCG:  Solving for p, Initial residual = 0.00032317234, Final residual = 1.5321057e-05, No Iterations 11
DICPCG:  Solving for p, Initial residual = 9.3403771e-05, Final residual = 4.5396e-06, No Iterations 31
DICPCG:  Solving for p, Initial residual = 4.3037997e-05, Final residual = 9.4121243e-07, No Iterations 47
time step continuity errors : sum local = 3.8934782e-12, global = 3.518423e-13, cumulative = -6.9279611e-08
ExecutionTime = 32.68 s  ClockTime = 34 s

Time = 3.8

Courant Number mean: 0.00055738232 max: 0.076668729
smoothSolver:  Solving for Ux, Initial residual = 0.00074351318, Final residual = 4.2948908e-08, No Iterations 1
smoothSolver:  Solving for Uy, Initial residual = 0.0011082913, Final residual = 6.437845e-08, No Iterations 1
smoothSolver:  Solving for Uz, Initial residual = 0.0010390495, Final residual = 5.9597515e-08, No Iterations 1
DICPCG:  Solving for p, Initial residual = 0.011450012, Final residual = 0.00037073949, No Iterations 2
DICPCG:  Solving for p, Initial residual = 0.0015683624, Final residual = 7.6377428e-05, No Iterations 18
DICPCG:  Solving for p, Initial residual = 0.00047091259, Final residual = 2.3317275e-05, No Iterations 124
time step continuity errors : sum local = 9.4552686e-11, global = 1.6349517e-13, cumulative = -6.9279447e-08
DICPCG:  Solving for p, Initial residual = 0.00031818135, Final residual = 1.4774738e-05, No Iterations 11
DICPCG:  Solving for p, Initial residual = 9.1813103e-05, Final residual = 4.4479681e-06, No Iterations 22
DICPCG:  Solving for p, Initial residual = 3.8793025e-05, Final residual = 9.9855848e-07, No Iterations 41
time step continuity errors : sum local = 4.04552e-12, global = 1.9874049e-13, cumulative = -6.9279248e-08
ExecutionTime = 33.28 s  ClockTime = 34 s

Time = 3.9

Courant Number mean: 0.00055738048 max: 0.076763817
smoothSolver:  Solving for Ux, Initial residual = 0.00072755854, Final residual = 4.186794e-08, No Iterations 1
smoothSolver:  Solving for Uy, Initial residual = 0.0010847865, Final residual = 6.3202252e-08, No Iterations 1
smoothSolver:  Solving for Uz, Initial residual = 0.0010167038, Final residual = 5.8184148e-08, No Iterations 1
DICPCG:  Solving for p, Initial residual = 0.01121168, Final residual = 0.00037479278, No Iterations 2
DICPCG:  Solving for p, Initial residual = 0.0015543451, Final residual = 7.2011673e-05, No Iterations 16
DICPCG:  Solving for p, Initial residual = 0.00046505636, Final residual = 2.225925e-05, No Iterations 125
time step continuity errors : sum local = 8.8446487e-11, global = 7.7373359e-14, cumulative = -6.9279171e-08
DICPCG:  Solving for p, Initial residual = 0.00032138347, Final residual = 1.5848177e-05, No Iterations 8
DICPCG:  Solving for p, Initial residual = 8.883978e-05, Final residual = 4.2669178e-06, No Iterations 32
DICPCG:  Solving for p, Initial residual = 4.6707009e-05, Final residual = 9.8101911e-07, No Iterations 47
time step continuity errors : sum local = 3.8943717e-12, global = 5.6003075e-14, cumulative = -6.9279115e-08
ExecutionTime = 33.91 s  ClockTime = 35 s

Time = 4

Courant Number mean: 0.00055737835 max: 0.076856315
smoothSolver:  Solving for Ux, Initial residual = 0.00071250754, Final residual = 4.0899394e-08, No Iterations 1
smoothSolver:  Solving for Uy, Initial residual = 0.0010623147, Final residual = 6.2204952e-08, No Iterations 1
smoothSolver:  Solving for Uz, Initial residual = 0.00099524097, Final residual = 5.6927886e-08, No Iterations 1
DICPCG:  Solving for p, Initial residual = 0.010913274, Final residual = 0.00037941849, No Iterations 2
DICPCG:  Solving for p, Initial residual = 0.0015140901, Final residual = 7.4517936e-05, No Iterations 16
DICPCG:  Solving for p, Initial residual = 0.00046470313, Final residual = 2.2467471e-05, No Iterations 126
time step continuity errors : sum local = 8.7531219e-11, global = 1.0050752e-13, cumulative = -6.9279014e-08
DICPCG:  Solving for p, Initial residual = 0.00032908994, Final residual = 1.4139108e-05, No Iterations 9
DICPCG:  Solving for p, Initial residual = 9.2192786e-05, Final residual = 4.3935041e-06, No Iterations 16
DICPCG:  Solving for p, Initial residual = 3.7694248e-05, Final residual = 9.3435567e-07, No Iterations 46
time step continuity errors : sum local = 3.6367649e-12, global = -5.5647407e-15, cumulative = -6.927902e-08
ExecutionTime = 34.68 s  ClockTime = 36 s

Time = 4.1

Courant Number mean: 0.00055737629 max: 0.076946507
smoothSolver:  Solving for Ux, Initial residual = 0.00069813986, Final residual = 3.9931686e-08, No Iterations 1
smoothSolver:  Solving for Uy, Initial residual = 0.0010412737, Final residual = 6.1135416e-08, No Iterations 1
smoothSolver:  Solving for Uz, Initial residual = 0.00097521512, Final residual = 5.5530606e-08, No Iterations 1
DICPCG:  Solving for p, Initial residual = 0.010666533, Final residual = 0.00036446683, No Iterations 2
DICPCG:  Solving for p, Initial residual = 0.0014848707, Final residual = 7.1562427e-05, No Iterations 16
DICPCG:  Solving for p, Initial residual = 0.00046025695, Final residual = 2.1162492e-05, No Iterations 126
time step continuity errors : sum local = 8.0884221e-11, global = 8.1637072e-14, cumulative = -6.9278938e-08
DICPCG:  Solving for p, Initial residual = 0.00032973892, Final residual = 1.6440647e-05, No Iterations 8
DICPCG:  Solving for p, Initial residual = 9.1070331e-05, Final residual = 4.1372482e-06, No Iterations 16
DICPCG:  Solving for p, Initial residual = 3.6798956e-05, Final residual = 8.7444949e-07, No Iterations 46
time step continuity errors : sum local = 3.3390518e-12, global = -2.8619957e-14, cumulative = -6.9278967e-08
ExecutionTime = 35.28 s  ClockTime = 36 s

Time = 4.2

Courant Number mean: 0.00055737425 max: 0.077034692
smoothSolver:  Solving for Ux, Initial residual = 0.00068441746, Final residual = 3.8856572e-08, No Iterations 1
smoothSolver:  Solving for Uy, Initial residual = 0.001021147, Final residual = 6.0038538e-08, No Iterations 1
smoothSolver:  Solving for Uz, Initial residual = 0.00095610815, Final residual = 5.4218253e-08, No Iterations 1
DICPCG:  Solving for p, Initial residual = 0.010473027, Final residual = 0.00035005045, No Iterations 2
DICPCG:  Solving for p, Initial residual = 0.0014387117, Final residual = 6.88072e-05, No Iterations 16
DICPCG:  Solving for p, Initial residual = 0.00043627483, Final residual = 2.1193763e-05, No Iterations 126
time step continuity errors : sum local = 7.9493386e-11, global = 4.3692634e-14, cumulative = -6.9278923e-08
DICPCG:  Solving for p, Initial residual = 0.00031762778, Final residual = 1.4559314e-05, No Iterations 8
DICPCG:  Solving for p, Initial residual = 8.6064161e-05, Final residual = 4.2178803e-06, No Iterations 16
DICPCG:  Solving for p, Initial residual = 3.4846318e-05, Final residual = 9.1403669e-07, No Iterations 46
time step continuity errors : sum local = 3.4251391e-12, global = -1.1149007e-13, cumulative = -6.9279035e-08
ExecutionTime = 35.87 s  ClockTime = 37 s

Time = 4.3

Courant Number mean: 0.00055737275 max: 0.077121086
smoothSolver:  Solving for Ux, Initial residual = 0.0006712252, Final residual = 3.7959466e-08, No Iterations 1
smoothSolver:  Solving for Uy, Initial residual = 0.0010017306, Final residual = 5.9106781e-08, No Iterations 1
smoothSolver:  Solving for Uz, Initial residual = 0.00093779935, Final residual = 5.3087227e-08, No Iterations 1
DICPCG:  Solving for p, Initial residual = 0.010141501, Final residual = 0.00034863793, No Iterations 2
DICPCG:  Solving for p, Initial residual = 0.0013899841, Final residual = 6.7331632e-05, No Iterations 18
DICPCG:  Solving for p, Initial residual = 0.00042387037, Final residual = 2.0061553e-05, No Iterations 124
time step continuity errors : sum local = 7.3896946e-11, global = 7.5441425e-14, cumulative = -6.9278959e-08
DICPCG:  Solving for p, Initial residual = 0.00029929615, Final residual = 1.4354546e-05, No Iterations 8
DICPCG:  Solving for p, Initial residual = 8.1347559e-05, Final residual = 3.926509e-06, No Iterations 16
DICPCG:  Solving for p, Initial residual = 3.3671837e-05, Final residual = 9.7763853e-07, No Iterations 45
time step continuity errors : sum local = 3.5980026e-12, global = -3.5376481e-14, cumulative = -6.9278995e-08
ExecutionTime = 36.48 s  ClockTime = 37 s

Time = 4.4

Courant Number mean: 0.00055737137 max: 0.077205951
smoothSolver:  Solving for Ux, Initial residual = 0.00065870527, Final residual = 3.7171491e-08, No Iterations 1
smoothSolver:  Solving for Uy, Initial residual = 0.00098345343, Final residual = 5.8261479e-08, No Iterations 1
smoothSolver:  Solving for Uz, Initial residual = 0.00092031303, Final residual = 5.2024885e-08, No Iterations 1
DICPCG:  Solving for p, Initial residual = 0.0099843733, Final residual = 0.00034653168, No Iterations 2
DICPCG:  Solving for p, Initial residual = 0.0013617085, Final residual = 6.7536677e-05, No Iterations 18
DICPCG:  Solving for p, Initial residual = 0.00043213464, Final residual = 2.0845513e-05, No Iterations 124
time step continuity errors : sum local = 7.5438435e-11, global = 8.994353e-14, cumulative = -6.9278905e-08
DICPCG:  Solving for p, Initial residual = 0.00030306392, Final residual = 1.4642569e-05, No Iterations 9
DICPCG:  Solving for p, Initial residual = 8.5402364e-05, Final residual = 3.9924815e-06, No Iterations 28
DICPCG:  Solving for p, Initial residual = 4.0655178e-05, Final residual = 9.395822e-07, No Iterations 47
time step continuity errors : sum local = 3.3973625e-12, global = 2.04999e-14, cumulative = -6.9278884e-08
ExecutionTime = 37.09 s  ClockTime = 38 s

Time = 4.5

Courant Number mean: 0.00055736984 max: 0.077289119
smoothSolver:  Solving for Ux, Initial residual = 0.00064681541, Final residual = 3.6424144e-08, No Iterations 1
smoothSolver:  Solving for Uy, Initial residual = 0.00096607388, Final residual = 5.735344e-08, No Iterations 1
smoothSolver:  Solving for Uz, Initial residual = 0.00090355823, Final residual = 5.0980633e-08, No Iterations 1
DICPCG:  Solving for p, Initial residual = 0.0097272376, Final residual = 0.00035226904, No Iterations 2
DICPCG:  Solving for p, Initial residual = 0.0013371976, Final residual = 6.6144273e-05, No Iterations 18
DICPCG:  Solving for p, Initial residual = 0.00042268797, Final residual = 2.0951117e-05, No Iterations 123
time step continuity errors : sum local = 7.4538401e-11, global = -1.6998404e-15, cumulative = -6.9278886e-08
DICPCG:  Solving for p, Initial residual = 0.00031619535, Final residual = 1.4090674e-05, No Iterations 9
DICPCG:  Solving for p, Initial residual = 8.7121398e-05, Final residual = 4.2174475e-06, No Iterations 17
DICPCG:  Solving for p, Initial residual = 3.5663084e-05, Final residual = 9.3779219e-07, No Iterations 46
time step continuity errors : sum local = 3.3333319e-12, global = -3.6654144e-14, cumulative = -6.9278923e-08
ExecutionTime = 37.87 s  ClockTime = 39 s

Time = 4.6

Courant Number mean: 0.00055736817 max: 0.07736983
smoothSolver:  Solving for Ux, Initial residual = 0.00063534582, Final residual = 3.5622876e-08, No Iterations 1
smoothSolver:  Solving for Uy, Initial residual = 0.00094951938, Final residual = 5.6471341e-08, No Iterations 1
smoothSolver:  Solving for Uz, Initial residual = 0.00088775366, Final residual = 4.9965925e-08, No Iterations 1
DICPCG:  Solving for p, Initial residual = 0.0094893749, Final residual = 0.00034074257, No Iterations 2
DICPCG:  Solving for p, Initial residual = 0.0013036566, Final residual = 6.2704025e-05, No Iterations 19
DICPCG:  Solving for p, Initial residual = 0.0004174683, Final residual = 1.9145769e-05, No Iterations 123
time step continuity errors : sum local = 6.6986353e-11, global = 8.2290075e-15, cumulative = -6.9278914e-08
DICPCG:  Solving for p, Initial residual = 0.00031245979, Final residual = 1.3885943e-05, No Iterations 9
DICPCG:  Solving for p, Initial residual = 8.644382e-05, Final residual = 4.2058087e-06, No Iterations 16
DICPCG:  Solving for p, Initial residual = 3.474648e-05, Final residual = 9.8749277e-07, No Iterations 45
time step continuity errors : sum local = 3.4517968e-12, global = -1.0070753e-14, cumulative = -6.9278925e-08
ExecutionTime = 38.48 s  ClockTime = 39 s

Time = 4.7

Courant Number mean: 0.00055736645 max: 0.077448684
smoothSolver:  Solving for Ux, Initial residual = 0.00062437552, Final residual = 3.4714625e-08, No Iterations 1
smoothSolver:  Solving for Uy, Initial residual = 0.00093363264, Final residual = 5.5616446e-08, No Iterations 1
smoothSolver:  Solving for Uz, Initial residual = 0.00087249868, Final residual = 4.8983766e-08, No Iterations 1
DICPCG:  Solving for p, Initial residual = 0.0092186466, Final residual = 0.000341938, No Iterations 2
DICPCG:  Solving for p, Initial residual = 0.0012665899, Final residual = 6.0372159e-05, No Iterations 19
DICPCG:  Solving for p, Initial residual = 0.00040562033, Final residual = 1.9663271e-05, No Iterations 123
time step continuity errors : sum local = 6.7691434e-11, global = 1.5122834e-14, cumulative = -6.9278909e-08
DICPCG:  Solving for p, Initial residual = 0.00028796761, Final residual = 1.4019619e-05, No Iterations 9
DICPCG:  Solving for p, Initial residual = 8.1344642e-05, Final residual = 3.6576665e-06, No Iterations 27
DICPCG:  Solving for p, Initial residual = 3.8000003e-05, Final residual = 9.5437639e-07, No Iterations 44
time step continuity errors : sum local = 3.2827502e-12, global = 2.9771277e-14, cumulative = -6.927888e-08
ExecutionTime = 39.1 s  ClockTime = 40 s

Time = 4.8

Courant Number mean: 0.00055736462 max: 0.077526961
smoothSolver:  Solving for Ux, Initial residual = 0.00061377755, Final residual = 3.3843594e-08, No Iterations 1
smoothSolver:  Solving for Uy, Initial residual = 0.00091838367, Final residual = 5.4765186e-08, No Iterations 1
smoothSolver:  Solving for Uz, Initial residual = 0.00085791765, Final residual = 4.8062753e-08, No Iterations 1
DICPCG:  Solving for p, Initial residual = 0.0089959442, Final residual = 0.00034054719, No Iterations 2
DICPCG:  Solving for p, Initial residual = 0.0012443749, Final residual = 6.0934742e-05, No Iterations 18
DICPCG:  Solving for p, Initial residual = 0.00040286136, Final residual = 1.9587532e-05, No Iterations 124
time step continuity errors : sum local = 6.6383615e-11, global = 6.5743038e-14, cumulative = -6.9278814e-08
DICPCG:  Solving for p, Initial residual = 0.00029321248, Final residual = 1.3362612e-05, No Iterations 9
DICPCG:  Solving for p, Initial residual = 8.208654e-05, Final residual = 3.8518442e-06, No Iterations 16
DICPCG:  Solving for p, Initial residual = 3.3102921e-05, Final residual = 9.5755556e-07, No Iterations 38
time step continuity errors : sum local = 3.2424792e-12, global = -6.6994775e-14, cumulative = -6.9278881e-08
ExecutionTime = 39.7 s  ClockTime = 41 s

Time = 4.9

Courant Number mean: 0.00055736264 max: 0.077604692
smoothSolver:  Solving for Ux, Initial residual = 0.00060371336, Final residual = 3.3052718e-08, No Iterations 1
smoothSolver:  Solving for Uy, Initial residual = 0.00090397038, Final residual = 5.3983007e-08, No Iterations 1
smoothSolver:  Solving for Uz, Initial residual = 0.00084394642, Final residual = 4.7322219e-08, No Iterations 1
DICPCG:  Solving for p, Initial residual = 0.0088397403, Final residual = 0.00033405397, No Iterations 2
DICPCG:  Solving for p, Initial residual = 0.0012246541, Final residual = 5.9260606e-05, No Iterations 18
DICPCG:  Solving for p, Initial residual = 0.00040090134, Final residual = 1.9569193e-05, No Iterations 124
time step continuity errors : sum local = 6.5316466e-11, global = 6.5146379e-14, cumulative = -6.9278816e-08
DICPCG:  Solving for p, Initial residual = 0.00029404789, Final residual = 1.4700199e-05, No Iterations 8
DICPCG:  Solving for p, Initial residual = 8.1526145e-05, Final residual = 3.7557478e-06, No Iterations 16
DICPCG:  Solving for p, Initial residual = 3.3313172e-05, Final residual = 9.5685272e-07, No Iterations 43
time step continuity errors : sum local = 3.1909685e-12, global = -9.3770558e-14, cumulative = -6.9278909e-08
ExecutionTime = 40.29 s  ClockTime = 41 s

Time = 5

Courant Number mean: 0.00055736057 max: 0.077681514
smoothSolver:  Solving for Ux, Initial residual = 0.00059399584, Final residual = 3.2285397e-08, No Iterations 1
smoothSolver:  Solving for Uy, Initial residual = 0.00089035656, Final residual = 5.3276317e-08, No Iterations 1
smoothSolver:  Solving for Uz, Initial residual = 0.00083064806, Final residual = 4.6674305e-08, No Iterations 1
DICPCG:  Solving for p, Initial residual = 0.0086328238, Final residual = 0.00033119778, No Iterations 2
DICPCG:  Solving for p, Initial residual = 0.0011965765, Final residual = 5.9130883e-05, No Iterations 18
DICPCG:  Solving for p, Initial residual = 0.00039290502, Final residual = 1.9627062e-05, No Iterations 124
time step continuity errors : sum local = 6.4546873e-11, global = 7.3826065e-14, cumulative = -6.9278836e-08
DICPCG:  Solving for p, Initial residual = 0.00028628778, Final residual = 1.2906568e-05, No Iterations 9
DICPCG:  Solving for p, Initial residual = 8.0376692e-05, Final residual = 3.9072255e-06, No Iterations 27
DICPCG:  Solving for p, Initial residual = 3.7749251e-05, Final residual = 9.5886049e-07, No Iterations 43
time step continuity errors : sum local = 3.1507617e-12, global = -6.2306677e-14, cumulative = -6.9278898e-08
ExecutionTime = 41.09 s  ClockTime = 42 s

Time = 5.1

Courant Number mean: 0.0005573585 max: 0.0777571
smoothSolver:  Solving for Ux, Initial residual = 0.0005846299, Final residual = 3.165441e-08, No Iterations 1
smoothSolver:  Solving for Uy, Initial residual = 0.00087739548, Final residual = 5.2553974e-08, No Iterations 1
smoothSolver:  Solving for Uz, Initial residual = 0.0008180223, Final residual = 4.6043062e-08, No Iterations 1
DICPCG:  Solving for p, Initial residual = 0.00849685, Final residual = 0.0003222528, No Iterations 2
DICPCG:  Solving for p, Initial residual = 0.0011897727, Final residual = 5.8454652e-05, No Iterations 18
DICPCG:  Solving for p, Initial residual = 0.00039184503, Final residual = 1.8664895e-05, No Iterations 123
time step continuity errors : sum local = 6.0502144e-11, global = -6.6881169e-14, cumulative = -6.9278965e-08
DICPCG:  Solving for p, Initial residual = 0.00027851292, Final residual = 1.2562836e-05, No Iterations 9
DICPCG:  Solving for p, Initial residual = 7.8234004e-05, Final residual = 3.7283263e-06, No Iterations 16
DICPCG:  Solving for p, Initial residual = 3.1759549e-05, Final residual = 9.9180737e-07, No Iterations 40
time step continuity errors : sum local = 3.2124121e-12, global = -5.054543e-14, cumulative = -6.9279015e-08
ExecutionTime = 41.68 s  ClockTime = 43 s

Time = 5.2

Courant Number mean: 0.00055735657 max: 0.077831418
smoothSolver:  Solving for Ux, Initial residual = 0.00057554853, Final residual = 3.1077708e-08, No Iterations 1
smoothSolver:  Solving for Uy, Initial residual = 0.00086484133, Final residual = 5.1832739e-08, No Iterations 1
smoothSolver:  Solving for Uz, Initial residual = 0.00080592761, Final residual = 4.5315771e-08, No Iterations 1
DICPCG:  Solving for p, Initial residual = 0.0083599213, Final residual = 0.00031924012, No Iterations 2
DICPCG:  Solving for p, Initial residual = 0.0011697824, Final residual = 5.8306338e-05, No Iterations 19
DICPCG:  Solving for p, Initial residual = 0.00039269241, Final residual = 1.9016236e-05, No Iterations 122
time step continuity errors : sum local = 6.0779146e-11, global = -3.8576452e-14, cumulative = -6.9279054e-08
DICPCG:  Solving for p, Initial residual = 0.00029220489, Final residual = 1.4081295e-05, No Iterations 8
DICPCG:  Solving for p, Initial residual = 8.0281379e-05, Final residual = 3.8254227e-06, No Iterations 16
DICPCG:  Solving for p, Initial residual = 3.3203742e-05, Final residual = 9.7296678e-07, No Iterations 35
time step continuity errors : sum local = 3.1071247e-12, global = -8.020335e-14, cumulative = -6.9279134e-08
ExecutionTime = 42.25 s  ClockTime = 43 s

Time = 5.3

Courant Number mean: 0.00055735481 max: 0.077904381
smoothSolver:  Solving for Ux, Initial residual = 0.00056679769, Final residual = 3.0578926e-08, No Iterations 1
smoothSolver:  Solving for Uy, Initial residual = 0.00085276438, Final residual = 5.1155457e-08, No Iterations 1
smoothSolver:  Solving for Uz, Initial residual = 0.00079424671, Final residual = 4.4640361e-08, No Iterations 1
DICPCG:  Solving for p, Initial residual = 0.0082071805, Final residual = 0.00032521451, No Iterations 2
DICPCG:  Solving for p, Initial residual = 0.0011625723, Final residual = 5.6459711e-05, No Iterations 16
DICPCG:  Solving for p, Initial residual = 0.00038474863, Final residual = 1.8643173e-05, No Iterations 123
time step continuity errors : sum local = 5.8765554e-11, global = -3.3488417e-14, cumulative = -6.9279168e-08
DICPCG:  Solving for p, Initial residual = 0.00028514058, Final residual = 1.3256318e-05, No Iterations 8
DICPCG:  Solving for p, Initial residual = 7.7529455e-05, Final residual = 3.7106054e-06, No Iterations 16
DICPCG:  Solving for p, Initial residual = 3.134009e-05, Final residual = 9.373728e-07, No Iterations 45
time step continuity errors : sum local = 2.9522955e-12, global = -1.5024872e-13, cumulative = -6.9279318e-08
ExecutionTime = 42.84 s  ClockTime = 44 s

Time = 5.4

Courant Number mean: 0.00055735302 max: 0.077975962
smoothSolver:  Solving for Ux, Initial residual = 0.00055844658, Final residual = 3.0101562e-08, No Iterations 1
smoothSolver:  Solving for Uy, Initial residual = 0.00084093865, Final residual = 5.0525244e-08, No Iterations 1
smoothSolver:  Solving for Uz, Initial residual = 0.00078292949, Final residual = 4.4011973e-08, No Iterations 1
DICPCG:  Solving for p, Initial residual = 0.0080414982, Final residual = 0.00032062042, No Iterations 2
DICPCG:  Solving for p, Initial residual = 0.0011275624, Final residual = 5.3773162e-05, No Iterations 19
DICPCG:  Solving for p, Initial residual = 0.00037825162, Final residual = 1.8531207e-05, No Iterations 122
time step continuity errors : sum local = 5.7628927e-11, global = -1.8738311e-14, cumulative = -6.9279337e-08
DICPCG:  Solving for p, Initial residual = 0.00026801246, Final residual = 1.280399e-05, No Iterations 9
DICPCG:  Solving for p, Initial residual = 7.5641391e-05, Final residual = 3.7531437e-06, No Iterations 18
DICPCG:  Solving for p, Initial residual = 3.2450069e-05, Final residual = 9.3654355e-07, No Iterations 45
time step continuity errors : sum local = 2.9103124e-12, global = -6.3613063e-14, cumulative = -6.92794e-08
ExecutionTime = 43.43 s  ClockTime = 45 s

Time = 5.5

Courant Number mean: 0.00055735135 max: 0.078046052
smoothSolver:  Solving for Ux, Initial residual = 0.00055038406, Final residual = 2.9576662e-08, No Iterations 1
smoothSolver:  Solving for Uy, Initial residual = 0.00082956286, Final residual = 4.9937891e-08, No Iterations 1
smoothSolver:  Solving for Uz, Initial residual = 0.00077191949, Final residual = 4.33417e-08, No Iterations 1
DICPCG:  Solving for p, Initial residual = 0.0078745315, Final residual = 0.00030453441, No Iterations 2
DICPCG:  Solving for p, Initial residual = 0.0011090175, Final residual = 5.409758e-05, No Iterations 19
DICPCG:  Solving for p, Initial residual = 0.00037105256, Final residual = 1.8413044e-05, No Iterations 122
time step continuity errors : sum local = 5.6512932e-11, global = -5.7355804e-14, cumulative = -6.9279458e-08
DICPCG:  Solving for p, Initial residual = 0.00025798891, Final residual = 1.2024061e-05, No Iterations 9
DICPCG:  Solving for p, Initial residual = 7.3043323e-05, Final residual = 3.4073711e-06, No Iterations 16
DICPCG:  Solving for p, Initial residual = 3.0066895e-05, Final residual = 9.6373007e-07, No Iterations 32
time step continuity errors : sum local = 2.9557722e-12, global = -9.9553444e-14, cumulative = -6.9279557e-08
ExecutionTime = 44.17 s  ClockTime = 45 s

Time = 5.6

Courant Number mean: 0.00055735002 max: 0.078113936
smoothSolver:  Solving for Ux, Initial residual = 0.00054244338, Final residual = 2.9038086e-08, No Iterations 1
smoothSolver:  Solving for Uy, Initial residual = 0.00081853291, Final residual = 4.9244326e-08, No Iterations 1
smoothSolver:  Solving for Uz, Initial residual = 0.00076146104, Final residual = 4.2682722e-08, No Iterations 1
DICPCG:  Solving for p, Initial residual = 0.0077435291, Final residual = 0.00030048274, No Iterations 2
DICPCG:  Solving for p, Initial residual = 0.0010827604, Final residual = 5.3505586e-05, No Iterations 19
DICPCG:  Solving for p, Initial residual = 0.0003654799, Final residual = 1.7038823e-05, No Iterations 123
time step continuity errors : sum local = 5.163187e-11, global = 2.4587104e-14, cumulative = -6.9279533e-08
DICPCG:  Solving for p, Initial residual = 0.00025245154, Final residual = 1.1764513e-05, No Iterations 9
DICPCG:  Solving for p, Initial residual = 7.1167714e-05, Final residual = 3.2554129e-06, No Iterations 16
DICPCG:  Solving for p, Initial residual = 2.8904543e-05, Final residual = 9.7913561e-07, No Iterations 32
time step continuity errors : sum local = 2.9650184e-12, global = -1.1318337e-13, cumulative = -6.9279646e-08
ExecutionTime = 44.74 s  ClockTime = 46 s

Time = 5.7

Courant Number mean: 0.0005573488 max: 0.078179218
smoothSolver:  Solving for Ux, Initial residual = 0.00053488301, Final residual = 2.8529985e-08, No Iterations 1
smoothSolver:  Solving for Uy, Initial residual = 0.00080790878, Final residual = 4.8558612e-08, No Iterations 1
smoothSolver:  Solving for Uz, Initial residual = 0.000751419, Final residual = 4.2049251e-08, No Iterations 1
DICPCG:  Solving for p, Initial residual = 0.0075925692, Final residual = 0.0002982901, No Iterations 2
DICPCG:  Solving for p, Initial residual = 0.0010653987, Final residual = 5.0164306e-05, No Iterations 20
DICPCG:  Solving for p, Initial residual = 0.00036581914, Final residual = 1.8032083e-05, No Iterations 122
time step continuity errors : sum local = 5.3967431e-11, global = -2.1081814e-14, cumulative = -6.9279667e-08
DICPCG:  Solving for p, Initial residual = 0.00024363821, Final residual = 1.1244533e-05, No Iterations 9
DICPCG:  Solving for p, Initial residual = 6.9320015e-05, Final residual = 3.1795427e-06, No Iterations 16
DICPCG:  Solving for p, Initial residual = 2.821554e-05, Final residual = 9.821942e-07, No Iterations 43
time step continuity errors : sum local = 2.9376735e-12, global = -1.1500164e-13, cumulative = -6.9279782e-08
ExecutionTime = 45.32 s  ClockTime = 46 s

Time = 5.8

Courant Number mean: 0.00055734749 max: 0.078241862
smoothSolver:  Solving for Ux, Initial residual = 0.00052760195, Final residual = 2.8062301e-08, No Iterations 1
smoothSolver:  Solving for Uy, Initial residual = 0.00079762794, Final residual = 4.7946431e-08, No Iterations 1
smoothSolver:  Solving for Uz, Initial residual = 0.0007417403, Final residual = 4.1464956e-08, No Iterations 1
DICPCG:  Solving for p, Initial residual = 0.0074181392, Final residual = 0.00029444157, No Iterations 2
DICPCG:  Solving for p, Initial residual = 0.0010251968, Final residual = 4.9970388e-05, No Iterations 22
DICPCG:  Solving for p, Initial residual = 0.00036182258, Final residual = 1.7276858e-05, No Iterations 121
time step continuity errors : sum local = 5.1091453e-11, global = 2.2945382e-15, cumulative = -6.927978e-08
DICPCG:  Solving for p, Initial residual = 0.00023526589, Final residual = 1.132299e-05, No Iterations 8
DICPCG:  Solving for p, Initial residual = 6.6796803e-05, Final residual = 3.3009948e-06, No Iterations 28
DICPCG:  Solving for p, Initial residual = 3.2094421e-05, Final residual = 9.9288958e-07, No Iterations 43
time step continuity errors : sum local = 2.9343643e-12, global = -1.5345748e-13, cumulative = -6.9279933e-08
ExecutionTime = 45.94 s  ClockTime = 47 s

Time = 5.9

Courant Number mean: 0.00055734612 max: 0.078301914
smoothSolver:  Solving for Ux, Initial residual = 0.00052065288, Final residual = 2.7633689e-08, No Iterations 1
smoothSolver:  Solving for Uy, Initial residual = 0.0007875926, Final residual = 4.7376546e-08, No Iterations 1
smoothSolver:  Solving for Uz, Initial residual = 0.00073233576, Final residual = 4.0863109e-08, No Iterations 1
DICPCG:  Solving for p, Initial residual = 0.0072709055, Final residual = 0.00029881788, No Iterations 2
DICPCG:  Solving for p, Initial residual = 0.001019813, Final residual = 5.0649118e-05, No Iterations 20
DICPCG:  Solving for p, Initial residual = 0.00036395229, Final residual = 1.7776576e-05, No Iterations 122
time step continuity errors : sum local = 5.1958942e-11, global = -4.9527046e-15, cumulative = -6.9279938e-08
DICPCG:  Solving for p, Initial residual = 0.00023835076, Final residual = 1.098053e-05, No Iterations 9
DICPCG:  Solving for p, Initial residual = 6.8865083e-05, Final residual = 3.1688472e-06, No Iterations 16
DICPCG:  Solving for p, Initial residual = 2.8979925e-05, Final residual = 9.7424765e-07, No Iterations 44
time step continuity errors : sum local = 2.8459283e-12, global = -8.2843317e-14, cumulative = -6.9280021e-08
ExecutionTime = 46.52 s  ClockTime = 48 s

Time = 6

Courant Number mean: 0.00055734476 max: 0.078359572
smoothSolver:  Solving for Ux, Initial residual = 0.00051399046, Final residual = 2.7211592e-08, No Iterations 1
smoothSolver:  Solving for Uy, Initial residual = 0.00077795852, Final residual = 4.6794637e-08, No Iterations 1
smoothSolver:  Solving for Uz, Initial residual = 0.00072324334, Final residual = 4.0276609e-08, No Iterations 1
DICPCG:  Solving for p, Initial residual = 0.007160048, Final residual = 0.00029394386, No Iterations 2
DICPCG:  Solving for p, Initial residual = 0.00099095706, Final residual = 4.6266034e-05, No Iterations 23
DICPCG:  Solving for p, Initial residual = 0.00035613655, Final residual = 1.6783665e-05, No Iterations 16
time step continuity errors : sum local = 4.8501975e-11, global = 2.2407942e-11, cumulative = -6.9257613e-08
DICPCG:  Solving for p, Initial residual = 0.00014692609, Final residual = 7.1218109e-06, No Iterations 126
DICPCG:  Solving for p, Initial residual = 0.00016801483, Final residual = 7.4558019e-06, No Iterations 4
DICPCG:  Solving for p, Initial residual = 4.2073182e-05, Final residual = 9.5797554e-07, No Iterations 44
time step continuity errors : sum local = 2.7668202e-12, global = 6.7904996e-15, cumulative = -6.9257606e-08
ExecutionTime = 47.3 s  ClockTime = 48 s

Time = 6.1

Courant Number mean: 0.00055734333 max: 0.078414997
smoothSolver:  Solving for Ux, Initial residual = 0.0005074302, Final residual = 2.6799004e-08, No Iterations 1
smoothSolver:  Solving for Uy, Initial residual = 0.00076865363, Final residual = 4.6186458e-08, No Iterations 1
smoothSolver:  Solving for Uz, Initial residual = 0.00071450251, Final residual = 3.9699598e-08, No Iterations 1
DICPCG:  Solving for p, Initial residual = 0.0071386932, Final residual = 0.00030100312, No Iterations 2
DICPCG:  Solving for p, Initial residual = 0.00099634097, Final residual = 4.7064097e-05, No Iterations 23
DICPCG:  Solving for p, Initial residual = 0.00035447478, Final residual = 1.6550687e-05, No Iterations 16
time step continuity errors : sum local = 4.729345e-11, global = 2.211307e-11, cumulative = -6.9235493e-08
DICPCG:  Solving for p, Initial residual = 0.00014582758, Final residual = 6.8572651e-06, No Iterations 131
[...]
DICPCG:  Solving for p, Initial residual = 2.1941658e-05, Final residual = 1.076033e-06, No Iterations 18
DICPCG:  Solving for p, Initial residual = 9.3699455e-06, Final residual = 9.8716543e-07, No Iterations 3
time step continuity errors : sum local = 1.6366684e-12, global = 3.5284313e-14, cumulative = -6.8343325e-08
ExecutionTime = 130.16 s  ClockTime = 131 s

Time = 18.6

Courant Number mean: 0.00055845866 max: 0.081291855
smoothSolver:  Solving for Ux, Initial residual = 0.00025218839, Final residual = 8.4389699e-09, No Iterations 1
smoothSolver:  Solving for Uy, Initial residual = 0.00037380784, Final residual = 1.5015493e-08, No Iterations 1
smoothSolver:  Solving for Uz, Initial residual = 0.00035956281, Final residual = 1.3112317e-08, No Iterations 1
DICPCG:  Solving for p, Initial residual = 0.0023008677, Final residual = 0.00010363558, No Iterations 2
DICPCG:  Solving for p, Initial residual = 0.00036254634, Final residual = 1.7058305e-05, No Iterations 19
DICPCG:  Solving for p, Initial residual = 0.0001494178, Final residual = 7.2555232e-06, No Iterations 15
time step continuity errors : sum local = 1.2008105e-11, global = 3.486145e-12, cumulative = -6.8339839e-08
DICPCG:  Solving for p, Initial residual = 5.5786348e-05, Final residual = 2.7040391e-06, No Iterations 134
DICPCG:  Solving for p, Initial residual = 4.5957358e-05, Final residual = 2.1392815e-06, No Iterations 5
DICPCG:  Solving for p, Initial residual = 1.289856e-05, Final residual = 9.9927758e-07, No Iterations 26
time step continuity errors : sum local = 1.6536264e-12, global = 6.4199252e-15, cumulative = -6.8339833e-08
ExecutionTime = 130.91 s  ClockTime = 132 s

Time = 18.7

Courant Number mean: 0.00055847636 max: 0.081310034
smoothSolver:  Solving for Ux, Initial residual = 0.0002514369, Final residual = 8.3788182e-09, No Iterations 1
smoothSolver:  Solving for Uy, Initial residual = 0.00037262554, Final residual = 1.4899795e-08, No Iterations 1
smoothSolver:  Solving for Uz, Initial residual = 0.00035874235, Final residual = 1.3014073e-08, No Iterations 1
DICPCG:  Solving for p, Initial residual = 0.0022382457, Final residual = 0.00010878391, No Iterations 2
DICPCG:  Solving for p, Initial residual = 0.00035565752, Final residual = 1.7419517e-05, No Iterations 19
DICPCG:  Solving for p, Initial residual = 0.00015004223, Final residual = 7.1982369e-06, No Iterations 22
time step continuity errors : sum local = 1.1891851e-11, global = 3.5669266e-12, cumulative = -6.8336266e-08
DICPCG:  Solving for p, Initial residual = 6.0018761e-05, Final residual = 2.9151767e-06, No Iterations 104
DICPCG:  Solving for p, Initial residual = 4.9833126e-05, Final residual = 2.4483751e-06, No Iterations 4
DICPCG:  Solving for p, Initial residual = 1.3336891e-05, Final residual = 9.7504053e-07, No Iterations 24
time step continuity errors : sum local = 1.6105865e-12, global = -9.4497654e-15, cumulative = -6.8336275e-08
ExecutionTime = 131.59 s  ClockTime = 133 s

Time = 18.8

Courant Number mean: 0.00055849421 max: 0.081327874
smoothSolver:  Solving for Ux, Initial residual = 0.00025073076, Final residual = 8.3175707e-09, No Iterations 1
smoothSolver:  Solving for Uy, Initial residual = 0.00037142638, Final residual = 1.4780685e-08, No Iterations 1
smoothSolver:  Solving for Uz, Initial residual = 0.00035781872, Final residual = 1.2916382e-08, No Iterations 1
DICPCG:  Solving for p, Initial residual = 0.0022520516, Final residual = 7.5311139e-05, No Iterations 3
DICPCG:  Solving for p, Initial residual = 0.00037674621, Final residual = 1.7035464e-05, No Iterations 16
DICPCG:  Solving for p, Initial residual = 0.00013280026, Final residual = 6.5266999e-06, No Iterations 20
time step continuity errors : sum local = 1.0763198e-11, global = 3.6099422e-12, cumulative = -6.8332665e-08
DICPCG:  Solving for p, Initial residual = 5.7284842e-05, Final residual = 2.7367989e-06, No Iterations 97
DICPCG:  Solving for p, Initial residual = 4.9860079e-05, Final residual = 2.3901585e-06, No Iterations 4
DICPCG:  Solving for p, Initial residual = 1.4332272e-05, Final residual = 9.6875528e-07, No Iterations 43
time step continuity errors : sum local = 1.5973633e-12, global = 1.3529526e-14, cumulative = -6.8332652e-08
ExecutionTime = 132.31 s  ClockTime = 134 s

Time = 18.9

Courant Number mean: 0.00055851233 max: 0.081345385
smoothSolver:  Solving for Ux, Initial residual = 0.00025006401, Final residual = 8.2498737e-09, No Iterations 1
smoothSolver:  Solving for Uy, Initial residual = 0.00037043727, Final residual = 1.4664389e-08, No Iterations 1
smoothSolver:  Solving for Uz, Initial residual = 0.00035703101, Final residual = 1.2821445e-08, No Iterations 1
DICPCG:  Solving for p, Initial residual = 0.002130792, Final residual = 8.1171898e-05, No Iterations 2
DICPCG:  Solving for p, Initial residual = 0.00030768534, Final residual = 1.4556865e-05, No Iterations 20
DICPCG:  Solving for p, Initial residual = 0.00011722844, Final residual = 5.6312343e-06, No Iterations 16
time step continuity errors : sum local = 9.2713013e-12, global = 3.6086973e-12, cumulative = -6.8329043e-08
DICPCG:  Solving for p, Initial residual = 4.5622255e-05, Final residual = 2.2295361e-06, No Iterations 133
DICPCG:  Solving for p, Initial residual = 4.6009978e-05, Final residual = 2.0978827e-06, No Iterations 4
DICPCG:  Solving for p, Initial residual = 1.198121e-05, Final residual = 9.2836294e-07, No Iterations 6
time step continuity errors : sum local = 1.5282636e-12, global = 5.0880697e-14, cumulative = -6.8328992e-08
ExecutionTime = 133.01 s  ClockTime = 134 s

Time = 19

Courant Number mean: 0.00055853044 max: 0.081362562
smoothSolver:  Solving for Ux, Initial residual = 0.00024939489, Final residual = 8.1804779e-09, No Iterations 1
smoothSolver:  Solving for Uy, Initial residual = 0.00036945257, Final residual = 1.4555012e-08, No Iterations 1
smoothSolver:  Solving for Uz, Initial residual = 0.00035618549, Final residual = 1.271389e-08, No Iterations 1
DICPCG:  Solving for p, Initial residual = 0.0021386659, Final residual = 6.8141061e-05, No Iterations 3
DICPCG:  Solving for p, Initial residual = 0.00034824586, Final residual = 1.7216925e-05, No Iterations 16
DICPCG:  Solving for p, Initial residual = 0.00012753124, Final residual = 6.3192219e-06, No Iterations 20
time step continuity errors : sum local = 1.0387102e-11, global = 3.6325926e-12, cumulative = -6.8325359e-08
DICPCG:  Solving for p, Initial residual = 5.4798138e-05, Final residual = 2.691257e-06, No Iterations 129
DICPCG:  Solving for p, Initial residual = 5.0410869e-05, Final residual = 2.3126882e-06, No Iterations 4
DICPCG:  Solving for p, Initial residual = 1.3634075e-05, Final residual = 9.9034603e-07, No Iterations 17
time step continuity errors : sum local = 1.6276374e-12, global = 1.2907398e-14, cumulative = -6.8325347e-08
ExecutionTime = 133.91 s  ClockTime = 135 s

Time = 19.1

Courant Number mean: 0.00055854846 max: 0.081379413
smoothSolver:  Solving for Ux, Initial residual = 0.00024867463, Final residual = 8.1201234e-09, No Iterations 1
smoothSolver:  Solving for Uy, Initial residual = 0.00036845285, Final residual = 1.4451686e-08, No Iterations 1
smoothSolver:  Solving for Uz, Initial residual = 0.00035539754, Final residual = 1.2601794e-08, No Iterations 1
DICPCG:  Solving for p, Initial residual = 0.0021632618, Final residual = 7.6048239e-05, No Iterations 3
DICPCG:  Solving for p, Initial residual = 0.00034105885, Final residual = 1.5653568e-05, No Iterations 15
DICPCG:  Solving for p, Initial residual = 0.00011775274, Final residual = 5.4754302e-06, No Iterations 125
time step continuity errors : sum local = 8.9858262e-12, global = 2.4552425e-14, cumulative = -6.8325322e-08
DICPCG:  Solving for p, Initial residual = 7.7696277e-05, Final residual = 3.3166418e-06, No Iterations 6
DICPCG:  Solving for p, Initial residual = 2.2217869e-05, Final residual = 1.0587406e-06, No Iterations 21
DICPCG:  Solving for p, Initial residual = 1.1412108e-05, Final residual = 9.2612826e-07, No Iterations 3
time step continuity errors : sum local = 1.5196143e-12, global = -2.4098416e-15, cumulative = -6.8325324e-08
ExecutionTime = 134.58 s  ClockTime = 136 s

Time = 19.2

Courant Number mean: 0.00055856645 max: 0.081395783
smoothSolver:  Solving for Ux, Initial residual = 0.00024803094, Final residual = 8.0697556e-09, No Iterations 1
smoothSolver:  Solving for Uy, Initial residual = 0.00036756878, Final residual = 1.4366713e-08, No Iterations 1
smoothSolver:  Solving for Uz, Initial residual = 0.0003545668, Final residual = 1.2499651e-08, No Iterations 1
DICPCG:  Solving for p, Initial residual = 0.002204404, Final residual = 9.1523242e-05, No Iterations 2
DICPCG:  Solving for p, Initial residual = 0.00034359193, Final residual = 1.6022438e-05, No Iterations 19
DICPCG:  Solving for p, Initial residual = 0.0001306037, Final residual = 6.1502171e-06, No Iterations 121
time step continuity errors : sum local = 1.0075587e-11, global = -2.1084367e-15, cumulative = -6.8325327e-08
DICPCG:  Solving for p, Initial residual = 7.3195422e-05, Final residual = 3.35445e-06, No Iterations 6
DICPCG:  Solving for p, Initial residual = 2.0978546e-05, Final residual = 1.0197216e-06, No Iterations 22
DICPCG:  Solving for p, Initial residual = 1.0656004e-05, Final residual = 9.2940737e-07, No Iterations 3
time step continuity errors : sum local = 1.5223499e-12, global = 5.9112028e-15, cumulative = -6.8325321e-08
ExecutionTime = 135.27 s  ClockTime = 137 s

Time = 19.3

Courant Number mean: 0.00055858462 max: 0.081411821
smoothSolver:  Solving for Ux, Initial residual = 0.00024728122, Final residual = 8.0088634e-09, No Iterations 1
smoothSolver:  Solving for Uy, Initial residual = 0.00036667475, Final residual = 1.4261185e-08, No Iterations 1
smoothSolver:  Solving for Uz, Initial residual = 0.000353762, Final residual = 1.2399951e-08, No Iterations 1
DICPCG:  Solving for p, Initial residual = 0.0021194915, Final residual = 8.5928429e-05, No Iterations 2
DICPCG:  Solving for p, Initial residual = 0.00030920109, Final residual = 1.3965809e-05, No Iterations 19
DICPCG:  Solving for p, Initial residual = 0.00011184333, Final residual = 5.2934821e-06, No Iterations 15
time step continuity errors : sum local = 8.6578781e-12, global = 3.1774897e-12, cumulative = -6.8322143e-08
DICPCG:  Solving for p, Initial residual = 4.1483442e-05, Final residual = 1.9874216e-06, No Iterations 127
DICPCG:  Solving for p, Initial residual = 4.1617375e-05, Final residual = 1.7749645e-06, No Iterations 4
DICPCG:  Solving for p, Initial residual = 1.0443255e-05, Final residual = 9.2019788e-07, No Iterations 5
time step continuity errors : sum local = 1.5048745e-12, global = 4.4291208e-14, cumulative = -6.8322099e-08
ExecutionTime = 135.94 s  ClockTime = 137 s

Time = 19.4

Courant Number mean: 0.00055860287 max: 0.081427534
smoothSolver:  Solving for Ux, Initial residual = 0.00024667126, Final residual = 7.9470085e-09, No Iterations 1
smoothSolver:  Solving for Uy, Initial residual = 0.00036574688, Final residual = 1.4136162e-08, No Iterations 1
smoothSolver:  Solving for Uz, Initial residual = 0.00035295308, Final residual = 1.2300497e-08, No Iterations 1
DICPCG:  Solving for p, Initial residual = 0.0021096782, Final residual = 0.00010436903, No Iterations 2
DICPCG:  Solving for p, Initial residual = 0.00032689233, Final residual = 1.5498475e-05, No Iterations 15
DICPCG:  Solving for p, Initial residual = 0.00012075266, Final residual = 5.9776904e-06, No Iterations 121
time step continuity errors : sum local = 9.7615199e-12, global = 9.8482048e-15, cumulative = -6.8322089e-08
DICPCG:  Solving for p, Initial residual = 6.7586502e-05, Final residual = 3.278338e-06, No Iterations 8
DICPCG:  Solving for p, Initial residual = 1.9786912e-05, Final residual = 9.8415179e-07, No Iterations 32
DICPCG:  Solving for p, Initial residual = 1.1355441e-05, Final residual = 7.698177e-07, No Iterations 4
time step continuity errors : sum local = 1.256923e-12, global = 2.0552556e-14, cumulative = -6.8322068e-08
ExecutionTime = 136.63 s  ClockTime = 138 s

Time = 19.5

Courant Number mean: 0.0005586211 max: 0.081442932
smoothSolver:  Solving for Ux, Initial residual = 0.00024606527, Final residual = 7.8995616e-09, No Iterations 1
smoothSolver:  Solving for Uy, Initial residual = 0.00036477892, Final residual = 1.4024581e-08, No Iterations 1
smoothSolver:  Solving for Uz, Initial residual = 0.00035215275, Final residual = 1.2197464e-08, No Iterations 1
DICPCG:  Solving for p, Initial residual = 0.0020821011, Final residual = 9.3452095e-05, No Iterations 2
DICPCG:  Solving for p, Initial residual = 0.00031023655, Final residual = 1.5509052e-05, No Iterations 15
DICPCG:  Solving for p, Initial residual = 0.00010916806, Final residual = 5.282421e-06, No Iterations 129
time step continuity errors : sum local = 8.6128704e-12, global = 2.418128e-14, cumulative = -6.8322044e-08
DICPCG:  Solving for p, Initial residual = 6.7056027e-05, Final residual = 3.0999112e-06, No Iterations 8
DICPCG:  Solving for p, Initial residual = 1.948156e-05, Final residual = 9.7246142e-07, No Iterations 45
DICPCG:  Solving for p, Initial residual = 1.2740293e-05, Final residual = 8.1978334e-07, No Iterations 4
time step continuity errors : sum local = 1.3364575e-12, global = 2.7013142e-14, cumulative = -6.8322017e-08
ExecutionTime = 137.57 s  ClockTime = 139 s

Time = 19.6

Courant Number mean: 0.00055863929 max: 0.081458069
smoothSolver:  Solving for Ux, Initial residual = 0.00024544591, Final residual = 7.8486074e-09, No Iterations 1
smoothSolver:  Solving for Uy, Initial residual = 0.00036390019, Final residual = 1.3917004e-08, No Iterations 1
smoothSolver:  Solving for Uz, Initial residual = 0.00035134355, Final residual = 1.2106008e-08, No Iterations 1
DICPCG:  Solving for p, Initial residual = 0.0021089834, Final residual = 8.5835429e-05, No Iterations 2
DICPCG:  Solving for p, Initial residual = 0.00032470856, Final residual = 1.6229888e-05, No Iterations 16
DICPCG:  Solving for p, Initial residual = 0.00012486485, Final residual = 6.2044243e-06, No Iterations 20
time step continuity errors : sum local = 1.0100687e-11, global = 3.2780779e-12, cumulative = -6.8318739e-08
DICPCG:  Solving for p, Initial residual = 5.1850008e-05, Final residual = 2.5677012e-06, No Iterations 119
DICPCG:  Solving for p, Initial residual = 4.5844632e-05, Final residual = 2.0085955e-06, No Iterations 4
DICPCG:  Solving for p, Initial residual = 1.2639796e-05, Final residual = 9.9158159e-07, No Iterations 10
time step continuity errors : sum local = 1.6140885e-12, global = -3.0743708e-14, cumulative = -6.831877e-08
ExecutionTime = 138.27 s  ClockTime = 140 s

Time = 19.7

Courant Number mean: 0.00055865784 max: 0.081472938
smoothSolver:  Solving for Ux, Initial residual = 0.0002448048, Final residual = 7.7916358e-09, No Iterations 1
smoothSolver:  Solving for Uy, Initial residual = 0.00036300666, Final residual = 1.3837407e-08, No Iterations 1
smoothSolver:  Solving for Uz, Initial residual = 0.000350595, Final residual = 1.2022518e-08, No Iterations 1
DICPCG:  Solving for p, Initial residual = 0.0020894839, Final residual = 9.256701e-05, No Iterations 2
DICPCG:  Solving for p, Initial residual = 0.00033218407, Final residual = 1.6597822e-05, No Iterations 17
DICPCG:  Solving for p, Initial residual = 0.00012688107, Final residual = 6.114805e-06, No Iterations 13
time step continuity errors : sum local = 9.9397623e-12, global = 3.2697449e-12, cumulative = -6.83155e-08
DICPCG:  Solving for p, Initial residual = 5.0143882e-05, Final residual = 2.3507245e-06, No Iterations 142
DICPCG:  Solving for p, Initial residual = 4.619347e-05, Final residual = 1.9724207e-06, No Iterations 4
DICPCG:  Solving for p, Initial residual = 1.2014099e-05, Final residual = 9.120233e-07, No Iterations 6
time step continuity errors : sum local = 1.482319e-12, global = 3.8191967e-14, cumulative = -6.8315462e-08
ExecutionTime = 138.97 s  ClockTime = 140 s

Time = 19.8

Courant Number mean: 0.00055867662 max: 0.081487539
smoothSolver:  Solving for Ux, Initial residual = 0.00024408494, Final residual = 7.7441589e-09, No Iterations 1
smoothSolver:  Solving for Uy, Initial residual = 0.0003620966, Final residual = 1.3779585e-08, No Iterations 1
smoothSolver:  Solving for Uz, Initial residual = 0.00034971014, Final residual = 1.1935864e-08, No Iterations 1
DICPCG:  Solving for p, Initial residual = 0.0020782302, Final residual = 9.1695785e-05, No Iterations 2
DICPCG:  Solving for p, Initial residual = 0.00030408894, Final residual = 1.5155407e-05, No Iterations 16
DICPCG:  Solving for p, Initial residual = 0.0001086754, Final residual = 5.3768682e-06, No Iterations 21
time step continuity errors : sum local = 8.7276767e-12, global = 3.2802349e-12, cumulative = -6.8312182e-08
DICPCG:  Solving for p, Initial residual = 4.3061189e-05, Final residual = 2.1229252e-06, No Iterations 120
DICPCG:  Solving for p, Initial residual = 4.2064686e-05, Final residual = 1.9074756e-06, No Iterations 4
DICPCG:  Solving for p, Initial residual = 1.0651207e-05, Final residual = 9.6792391e-07, No Iterations 5
time step continuity errors : sum local = 1.5709302e-12, global = 4.5258542e-14, cumulative = -6.8312136e-08
ExecutionTime = 139.62 s  ClockTime = 141 s

Time = 19.9

Courant Number mean: 0.0005586955 max: 0.081501884
smoothSolver:  Solving for Ux, Initial residual = 0.00024341758, Final residual = 7.6926865e-09, No Iterations 1
smoothSolver:  Solving for Uy, Initial residual = 0.00036125278, Final residual = 1.3723548e-08, No Iterations 1
smoothSolver:  Solving for Uz, Initial residual = 0.000348905, Final residual = 1.1857496e-08, No Iterations 1
DICPCG:  Solving for p, Initial residual = 0.0021140486, Final residual = 9.4852557e-05, No Iterations 2
DICPCG:  Solving for p, Initial residual = 0.00032882932, Final residual = 1.6393932e-05, No Iterations 16
DICPCG:  Solving for p, Initial residual = 0.00012292418, Final residual = 6.0274619e-06, No Iterations 20
time step continuity errors : sum local = 9.7702645e-12, global = 2.9173783e-12, cumulative = -6.8309219e-08
DICPCG:  Solving for p, Initial residual = 4.7597054e-05, Final residual = 2.3690502e-06, No Iterations 133
DICPCG:  Solving for p, Initial residual = 4.1162186e-05, Final residual = 1.9665858e-06, No Iterations 4
DICPCG:  Solving for p, Initial residual = 1.0782986e-05, Final residual = 9.7638349e-07, No Iterations 6
time step continuity errors : sum local = 1.5825062e-12, global = 3.5557592e-14, cumulative = -6.8309184e-08
ExecutionTime = 140.31 s  ClockTime = 142 s

Time = 20

Courant Number mean: 0.00055871438 max: 0.081515973
smoothSolver:  Solving for Ux, Initial residual = 0.00024279183, Final residual = 7.6436453e-09, No Iterations 1
smoothSolver:  Solving for Uy, Initial residual = 0.00036044335, Final residual = 1.3674187e-08, No Iterations 1
smoothSolver:  Solving for Uz, Initial residual = 0.00034818999, Final residual = 1.1772155e-08, No Iterations 1
DICPCG:  Solving for p, Initial residual = 0.0020725952, Final residual = 9.2202007e-05, No Iterations 2
DICPCG:  Solving for p, Initial residual = 0.00033230833, Final residual = 1.6514835e-05, No Iterations 16
DICPCG:  Solving for p, Initial residual = 0.00012552492, Final residual = 5.9113386e-06, No Iterations 21
time step continuity errors : sum local = 9.5685421e-12, global = 3.1605856e-12, cumulative = -6.8306023e-08
DICPCG:  Solving for p, Initial residual = 4.986425e-05, Final residual = 2.4494142e-06, No Iterations 126
DICPCG:  Solving for p, Initial residual = 4.3076586e-05, Final residual = 2.1209422e-06, No Iterations 4
DICPCG:  Solving for p, Initial residual = 1.1209441e-05, Final residual = 9.7974189e-07, No Iterations 15
time step continuity errors : sum local = 1.5857079e-12, global = -8.8129541e-15, cumulative = -6.8306032e-08
ExecutionTime = 141.21 s  ClockTime = 143 s

End

Finalising parallel run
