/*---------------------------------------------------------------------------*\
  =========                 |
  \\      /  F ield         | OpenFOAM: The Open Source CFD Toolbox
   \\    /   O peration     | Website:  https://openfoam.org
    \\  /    A nd           | Version:  8
     \\/     M anipulation  |
\*---------------------------------------------------------------------------*/
Build  : 8-1c9b5879390b
Exec   : checkMesh
Date   : Nov 14 2021
Time   : 10:15:44
Host   : "pop-os"
PID    : 7180
I/O    : uncollated
Case   : /home/naimishbalaji/Desktop/Mini_Project/CFD-For-Ventilation-Analysis/simulations/icofoam_cases/3_wall_4_ceiling/case
nProcs : 1
sigFpe : Enabling floating point exception trapping (FOAM_SIGFPE).
fileModificationChecking : Monitoring run-time modified files using timeStampMaster (fileModificationSkew 10)
allowSystemOperations : Allowing user-supplied system call operations

// * * * * * * * * * * * * * * * * * * * * * * * * * * * * * * * * * * * * * //
Create time

Create polyMesh for time = 0

Time = 0

Mesh stats
    points:           105373
    faces:            274239
    internal faces:   254073
    cells:            88052
    faces per cell:   6
    boundary patches: 6
    point zones:      0
    face zones:       0
    cell zones:       1

Overall number of cells of each type:
    hexahedra:     88052
    prisms:        0
    wedges:        0
    pyramids:      0
    tet wedges:    0
    tetrahedra:    0
    polyhedra:     0

Checking topology...
    Boundary definition OK.
    Cell to face addressing OK.
    Point usage OK.
    Upper triangular ordering OK.
    Face vertices OK.
    Number of regions: 1 (OK).

Checking patch topology for multiply connected surfaces...
    Patch               Faces    Points   Surface topology                  
    wall                16398    16684    ok (non-closed singly connected)  
    surface             3600     3891     ok (non-closed singly connected)  
    main_outlet         24       31       ok (non-closed singly connected)  
    branch_outlet       48       62       ok (non-closed singly connected)  
    branch_inlet        48       62       ok (non-closed singly connected)  
    main_inlet          48       62       ok (non-closed singly connected)  

Checking geometry...
    Overall domain bounding box (-1524 0 0) (19812 12192 3962.4)
    Mesh has 3 geometric (non-empty/wedge) directions (1 1 1)
    Mesh has 3 solution (non-empty) directions (1 1 1)
    Boundary openness (-6.3030811e-17 -1.4423731e-17 2.5769067e-17) OK.
    Max cell openness = 2.3776675e-16 OK.
    Max aspect ratio = 10.571736 OK.
    Minimum face area = 2021.004. Maximum face area = 177086.6.  Face area magnitudes OK.
    Min volume = 412215.62. Max volume = 28458925.  Total volume = 6.4892505e+11.  Cell volumes OK.
    Mesh non-orthogonality Max: 77.826118 average: 26.854759
   *Number of severely non-orthogonal (> 70 degrees) faces: 584.
    Non-orthogonality check OK.
  <<Writing 584 non-orthogonal faces to set nonOrthoFaces
    Face pyramids OK.
    Max skewness = 1.6906285 OK.
    Coupled point location match (average 0) OK.

Mesh OK.

End

