/*---------------------------------------------------------------------------*\
  =========                 |
  \\      /  F ield         | OpenFOAM: The Open Source CFD Toolbox
   \\    /   O peration     | Website:  https://openfoam.org
    \\  /    A nd           | Version:  8
     \\/     M anipulation  |
\*---------------------------------------------------------------------------*/
Build  : 8-1c9b5879390b
Exec   : icoFoam -parallel
Date   : Nov 14 2021
Time   : 10:15:50
Host   : "pop-os"
PID    : 7188
I/O    : uncollated
Case   : /home/naimishbalaji/Desktop/Mini_Project/CFD-For-Ventilation-Analysis/simulations/icofoam_cases/3_wall_4_ceiling/case
nProcs : 2
Slaves : 1("pop-os.7189")
Pstream initialized with:
    floatTransfer      : 0
    nProcsSimpleSum    : 0
    commsType          : nonBlocking
    polling iterations : 0
sigFpe : Enabling floating point exception trapping (FOAM_SIGFPE).
fileModificationChecking : Monitoring run-time modified files using timeStampMaster (fileModificationSkew 10)
allowSystemOperations : Allowing user-supplied system call operations

// * * * * * * * * * * * * * * * * * * * * * * * * * * * * * * * * * * * * * //
Create time

Create mesh for time = 0

Reading transportProperties

Reading field p

Reading field U

Reading/calculating face flux field phi


Starting time loop

Time = 0.1

Courant Number mean: 2.3364449e-06 max: 0.013470546
smoothSolver:  Solving for Ux, Initial residual = 1, Final residual = 1.0194395e-16, No Iterations 1
smoothSolver:  Solving for Uy, Initial residual = 0, Final residual = 0, No Iterations 0
smoothSolver:  Solving for Uz, Initial residual = 1, Final residual = 7.0830434e-17, No Iterations 1
DICPCG:  Solving for p, Initial residual = 1, Final residual = 0.043809107, No Iterations 182
DICPCG:  Solving for p, Initial residual = 0.3626514, Final residual = 0.016487712, No Iterations 4
DICPCG:  Solving for p, Initial residual = 0.063053484, Final residual = 0.0028296447, No Iterations 9
time step continuity errors : sum local = 1.7323319e-06, global = 3.2321575e-08, cumulative = 3.2321575e-08
DICPCG:  Solving for p, Initial residual = 0.016689706, Final residual = 0.00081406099, No Iterations 16
DICPCG:  Solving for p, Initial residual = 0.0065462277, Final residual = 0.00028530253, No Iterations 15
DICPCG:  Solving for p, Initial residual = 0.0025885161, Final residual = 9.8351165e-07, No Iterations 191
time step continuity errors : sum local = 6.0695935e-10, global = -8.9640884e-13, cumulative = 3.2320678e-08
ExecutionTime = 1.83 s  ClockTime = 3 s

Time = 0.2

Courant Number mean: 0.00057452781 max: 0.10271474
smoothSolver:  Solving for Ux, Initial residual = 0.37530634, Final residual = 9.1524717e-06, No Iterations 1
smoothSolver:  Solving for Uy, Initial residual = 0.33275766, Final residual = 6.0781079e-06, No Iterations 1
smoothSolver:  Solving for Uz, Initial residual = 0.31362409, Final residual = 7.3113923e-09, No Iterations 2
DICPCG:  Solving for p, Initial residual = 0.082254846, Final residual = 0.0039549021, No Iterations 147
DICPCG:  Solving for p, Initial residual = 0.60361985, Final residual = 0.027286639, No Iterations 4
DICPCG:  Solving for p, Initial residual = 0.2946693, Final residual = 0.013652414, No Iterations 15
time step continuity errors : sum local = 1.814202e-06, global = -8.1442156e-08, cumulative = -4.9121478e-08
DICPCG:  Solving for p, Initial residual = 0.11165166, Final residual = 0.005453167, No Iterations 33
DICPCG:  Solving for p, Initial residual = 0.059485064, Final residual = 0.0028711181, No Iterations 125
DICPCG:  Solving for p, Initial residual = 0.043210474, Final residual = 9.6817139e-07, No Iterations 223
time step continuity errors : sum local = 9.4019884e-11, global = -6.6243681e-14, cumulative = -4.9121544e-08
ExecutionTime = 3.7 s  ClockTime = 5 s

Time = 0.3

Courant Number mean: 0.00058144175 max: 0.10281508
smoothSolver:  Solving for Ux, Initial residual = 0.022314584, Final residual = 8.9100281e-07, No Iterations 1
smoothSolver:  Solving for Uy, Initial residual = 0.039092528, Final residual = 1.2639378e-06, No Iterations 1
smoothSolver:  Solving for Uz, Initial residual = 0.036082612, Final residual = 1.6143467e-06, No Iterations 1
DICPCG:  Solving for p, Initial residual = 0.43805643, Final residual = 0.016985021, No Iterations 4
DICPCG:  Solving for p, Initial residual = 0.2066871, Final residual = 0.0087335563, No Iterations 6
DICPCG:  Solving for p, Initial residual = 0.061987261, Final residual = 0.0028849187, No Iterations 13
time step continuity errors : sum local = 1.1787565e-07, global = -1.0497897e-08, cumulative = -5.9619442e-08
DICPCG:  Solving for p, Initial residual = 0.024785306, Final residual = 0.0011727255, No Iterations 9
DICPCG:  Solving for p, Initial residual = 0.0089503957, Final residual = 0.00043873192, No Iterations 141
DICPCG:  Solving for p, Initial residual = 0.0096430487, Final residual = 9.7563932e-07, No Iterations 193
time step continuity errors : sum local = 3.9063826e-11, global = 1.4455366e-15, cumulative = -5.961944e-08
ExecutionTime = 5.05 s  ClockTime = 6 s

Time = 0.4

Courant Number mean: 0.00058167303 max: 0.10295716
smoothSolver:  Solving for Ux, Initial residual = 0.0077952808, Final residual = 3.9535348e-07, No Iterations 1
smoothSolver:  Solving for Uy, Initial residual = 0.013178784, Final residual = 5.6579518e-07, No Iterations 1
smoothSolver:  Solving for Uz, Initial residual = 0.012433423, Final residual = 6.5973284e-07, No Iterations 1
DICPCG:  Solving for p, Initial residual = 0.19034659, Final residual = 0.0079808076, No Iterations 3
DICPCG:  Solving for p, Initial residual = 0.052826766, Final residual = 0.002378797, No Iterations 13
DICPCG:  Solving for p, Initial residual = 0.015675578, Final residual = 0.00074184039, No Iterations 22
time step continuity errors : sum local = 2.0700741e-08, global = -7.112288e-09, cumulative = -6.6731728e-08
DICPCG:  Solving for p, Initial residual = 0.0062433517, Final residual = 0.00030607252, No Iterations 118
DICPCG:  Solving for p, Initial residual = 0.0053546518, Final residual = 0.00026164483, No Iterations 5
DICPCG:  Solving for p, Initial residual = 0.0014113137, Final residual = 9.0233983e-07, No Iterations 202
time step continuity errors : sum local = 2.5315419e-11, global = -1.6340039e-14, cumulative = -6.6731745e-08
ExecutionTime = 6.44 s  ClockTime = 7 s

Time = 0.5

Courant Number mean: 0.00058165681 max: 0.10303664
smoothSolver:  Solving for Ux, Initial residual = 0.0052626255, Final residual = 2.9241945e-07, No Iterations 1
smoothSolver:  Solving for Uy, Initial residual = 0.0087140476, Final residual = 4.0218623e-07, No Iterations 1
smoothSolver:  Solving for Uz, Initial residual = 0.0082163489, Final residual = 4.635641e-07, No Iterations 1
DICPCG:  Solving for p, Initial residual = 0.10951196, Final residual = 0.0042600948, No Iterations 3
DICPCG:  Solving for p, Initial residual = 0.024683555, Final residual = 0.0011776811, No Iterations 14
DICPCG:  Solving for p, Initial residual = 0.0069129384, Final residual = 0.00033658095, No Iterations 124
time step continuity errors : sum local = 7.6720622e-09, global = -2.709131e-11, cumulative = -6.6758836e-08
DICPCG:  Solving for p, Initial residual = 0.0047133668, Final residual = 0.00021854937, No Iterations 5
DICPCG:  Solving for p, Initial residual = 0.0012932824, Final residual = 6.4520337e-05, No Iterations 27
DICPCG:  Solving for p, Initial residual = 0.00065865346, Final residual = 9.739881e-07, No Iterations 175
time step continuity errors : sum local = 2.2432997e-11, global = -7.1638414e-15, cumulative = -6.6758843e-08
ExecutionTime = 7.98 s  ClockTime = 9 s

Time = 0.6

Courant Number mean: 0.00058165308 max: 0.10309907
smoothSolver:  Solving for Ux, Initial residual = 0.004179891, Final residual = 2.4175636e-07, No Iterations 1
smoothSolver:  Solving for Uy, Initial residual = 0.0068812773, Final residual = 3.3171284e-07, No Iterations 1
smoothSolver:  Solving for Uz, Initial residual = 0.0064938208, Final residual = 3.7815634e-07, No Iterations 1
DICPCG:  Solving for p, Initial residual = 0.082650406, Final residual = 0.0039337247, No Iterations 2
DICPCG:  Solving for p, Initial residual = 0.01723635, Final residual = 0.00083159344, No Iterations 14
DICPCG:  Solving for p, Initial residual = 0.0048006179, Final residual = 0.00022525435, No Iterations 122
time step continuity errors : sum local = 4.431382e-09, global = -3.4150302e-12, cumulative = -6.6762258e-08
DICPCG:  Solving for p, Initial residual = 0.003124453, Final residual = 0.0001560301, No Iterations 4
DICPCG:  Solving for p, Initial residual = 0.00081866654, Final residual = 3.9112543e-05, No Iterations 28
DICPCG:  Solving for p, Initial residual = 0.00043278871, Final residual = 9.6305738e-07, No Iterations 169
time step continuity errors : sum local = 1.9071052e-11, global = 2.3848741e-14, cumulative = -6.6762234e-08
ExecutionTime = 9.32 s  ClockTime = 10 s

Time = 0.7

Courant Number mean: 0.00058164875 max: 0.10311838
smoothSolver:  Solving for Ux, Initial residual = 0.0035010728, Final residual = 2.0844341e-07, No Iterations 1
smoothSolver:  Solving for Uy, Initial residual = 0.0057496868, Final residual = 2.8622609e-07, No Iterations 1
smoothSolver:  Solving for Uz, Initial residual = 0.0054272604, Final residual = 3.2494819e-07, No Iterations 1
DICPCG:  Solving for p, Initial residual = 0.067209955, Final residual = 0.0029128573, No Iterations 2
DICPCG:  Solving for p, Initial residual = 0.013268392, Final residual = 0.00058571737, No Iterations 14
DICPCG:  Solving for p, Initial residual = 0.003505166, Final residual = 0.00017455629, No Iterations 112
time step continuity errors : sum local = 3.0403304e-09, global = -1.010865e-11, cumulative = -6.6772343e-08
DICPCG:  Solving for p, Initial residual = 0.002097792, Final residual = 0.0001038222, No Iterations 5
DICPCG:  Solving for p, Initial residual = 0.00057038004, Final residual = 2.683493e-05, No Iterations 54
DICPCG:  Solving for p, Initial residual = 0.0004154336, Final residual = 9.9222794e-07, No Iterations 163
time step continuity errors : sum local = 1.7349328e-11, global = 8.8982207e-15, cumulative = -6.6772334e-08
ExecutionTime = 10.7 s  ClockTime = 12 s

Time = 0.8

Courant Number mean: 0.00058164243 max: 0.10311445
smoothSolver:  Solving for Ux, Initial residual = 0.003031511, Final residual = 1.8657106e-07, No Iterations 1
smoothSolver:  Solving for Uy, Initial residual = 0.0049685781, Final residual = 2.5566418e-07, No Iterations 1
smoothSolver:  Solving for Uz, Initial residual = 0.004691685, Final residual = 2.8575454e-07, No Iterations 1
DICPCG:  Solving for p, Initial residual = 0.057054352, Final residual = 0.0023423358, No Iterations 2
DICPCG:  Solving for p, Initial residual = 0.010790959, Final residual = 0.0005213966, No Iterations 11
DICPCG:  Solving for p, Initial residual = 0.0027406683, Final residual = 0.00012999146, No Iterations 20
time step continuity errors : sum local = 2.0378801e-09, global = -5.7127589e-10, cumulative = -6.734361e-08
DICPCG:  Solving for p, Initial residual = 0.0011310364, Final residual = 5.4275591e-05, No Iterations 89
DICPCG:  Solving for p, Initial residual = 0.00085466032, Final residual = 3.4911384e-05, No Iterations 6
DICPCG:  Solving for p, Initial residual = 0.00022227782, Final residual = 9.5170958e-07, No Iterations 94
time step continuity errors : sum local = 1.4951132e-11, global = -4.1868476e-13, cumulative = -6.7344029e-08
ExecutionTime = 11.64 s  ClockTime = 13 s

Time = 0.9

Courant Number mean: 0.0005816331 max: 0.10308512
smoothSolver:  Solving for Ux, Initial residual = 0.0026819088, Final residual = 1.7063542e-07, No Iterations 1
smoothSolver:  Solving for Uy, Initial residual = 0.004389258, Final residual = 2.3367303e-07, No Iterations 1
smoothSolver:  Solving for Uz, Initial residual = 0.0041428194, Final residual = 2.5638213e-07, No Iterations 1
DICPCG:  Solving for p, Initial residual = 0.049812308, Final residual = 0.0019432308, No Iterations 2
DICPCG:  Solving for p, Initial residual = 0.0091228262, Final residual = 0.00045333006, No Iterations 8
DICPCG:  Solving for p, Initial residual = 0.0022141228, Final residual = 0.00010368063, No Iterations 15
time step continuity errors : sum local = 1.4811577e-09, global = -2.8321403e-10, cumulative = -6.7627243e-08
DICPCG:  Solving for p, Initial residual = 0.00085794745, Final residual = 3.9745862e-05, No Iterations 88
DICPCG:  Solving for p, Initial residual = 0.00064507122, Final residual = 3.1356107e-05, No Iterations 5
DICPCG:  Solving for p, Initial residual = 0.00016371866, Final residual = 9.9918741e-07, No Iterations 90
time step continuity errors : sum local = 1.4288635e-11, global = -2.4765506e-12, cumulative = -6.7629719e-08
ExecutionTime = 12.58 s  ClockTime = 14 s

Time = 1

Courant Number mean: 0.00058162499 max: 0.10304784
smoothSolver:  Solving for Ux, Initial residual = 0.0024111252, Final residual = 1.5596889e-07, No Iterations 1
smoothSolver:  Solving for Uy, Initial residual = 0.0039424236, Final residual = 2.1256438e-07, No Iterations 1
smoothSolver:  Solving for Uz, Initial residual = 0.0037183285, Final residual = 2.3004181e-07, No Iterations 1
DICPCG:  Solving for p, Initial residual = 0.044464868, Final residual = 0.0016494591, No Iterations 2
DICPCG:  Solving for p, Initial residual = 0.0079168482, Final residual = 0.00039298935, No Iterations 6
DICPCG:  Solving for p, Initial residual = 0.001923357, Final residual = 9.4909491e-05, No Iterations 15
time step continuity errors : sum local = 1.2468742e-09, global = -1.2062831e-10, cumulative = -6.7750348e-08
DICPCG:  Solving for p, Initial residual = 0.00074214262, Final residual = 3.6580727e-05, No Iterations 24
DICPCG:  Solving for p, Initial residual = 0.00034448913, Final residual = 1.6540416e-05, No Iterations 14
DICPCG:  Solving for p, Initial residual = 0.0001205015, Final residual = 9.4022716e-07, No Iterations 155
time step continuity errors : sum local = 1.2348096e-11, global = -5.3493992e-14, cumulative = -6.7750401e-08
ExecutionTime = 13.78 s  ClockTime = 15 s

Time = 1.1

Courant Number mean: 0.00058161686 max: 0.1030124
smoothSolver:  Solving for Ux, Initial residual = 0.0021927936, Final residual = 1.4564298e-07, No Iterations 1
smoothSolver:  Solving for Uy, Initial residual = 0.0035843694, Final residual = 1.9748803e-07, No Iterations 1
smoothSolver:  Solving for Uz, Initial residual = 0.0033765676, Final residual = 2.1062599e-07, No Iterations 1
DICPCG:  Solving for p, Initial residual = 0.039787565, Final residual = 0.0014175644, No Iterations 2
DICPCG:  Solving for p, Initial residual = 0.0069119889, Final residual = 0.00032138539, No Iterations 6
DICPCG:  Solving for p, Initial residual = 0.0016529543, Final residual = 7.4668152e-05, No Iterations 15
time step continuity errors : sum local = 9.0916422e-10, global = -1.8097997e-11, cumulative = -6.7768499e-08
DICPCG:  Solving for p, Initial residual = 0.00064019254, Final residual = 3.0248847e-05, No Iterations 18
DICPCG:  Solving for p, Initial residual = 0.00026400934, Final residual = 1.2514313e-05, No Iterations 24
DICPCG:  Solving for p, Initial residual = 0.00012031416, Final residual = 9.3676101e-07, No Iterations 70
time step continuity errors : sum local = 1.1401997e-11, global = 6.9547083e-14, cumulative = -6.7768429e-08
ExecutionTime = 14.48 s  ClockTime = 15 s

Time = 1.2

Courant Number mean: 0.0005816104 max: 0.10296618
smoothSolver:  Solving for Ux, Initial residual = 0.0020145835, Final residual = 1.3716226e-07, No Iterations 1
smoothSolver:  Solving for Uy, Initial residual = 0.003293295, Final residual = 1.850936e-07, No Iterations 1
smoothSolver:  Solving for Uz, Initial residual = 0.0030970834, Final residual = 1.9528324e-07, No Iterations 1
DICPCG:  Solving for p, Initial residual = 0.036307611, Final residual = 0.0012780805, No Iterations 2
DICPCG:  Solving for p, Initial residual = 0.0062150533, Final residual = 0.00028230614, No Iterations 6
DICPCG:  Solving for p, Initial residual = 0.0014767592, Final residual = 6.2922141e-05, No Iterations 16
time step continuity errors : sum local = 7.1454637e-10, global = 3.9095508e-11, cumulative = -6.7729334e-08
DICPCG:  Solving for p, Initial residual = 0.0005799998, Final residual = 2.7711624e-05, No Iterations 18
DICPCG:  Solving for p, Initial residual = 0.00023522149, Final residual = 1.1149848e-05, No Iterations 123
DICPCG:  Solving for p, Initial residual = 0.00013517715, Final residual = 9.4447264e-07, No Iterations 49
time step continuity errors : sum local = 1.0718694e-11, global = -1.2819407e-12, cumulative = -6.7730616e-08
ExecutionTime = 15.38 s  ClockTime = 16 s

Time = 1.3

Courant Number mean: 0.0005816041 max: 0.10291455
smoothSolver:  Solving for Ux, Initial residual = 0.0018647021, Final residual = 1.2986756e-07, No Iterations 1
smoothSolver:  Solving for Uy, Initial residual = 0.0030506117, Final residual = 1.7478001e-07, No Iterations 1
smoothSolver:  Solving for Uz, Initial residual = 0.0028636937, Final residual = 1.8267753e-07, No Iterations 1
DICPCG:  Solving for p, Initial residual = 0.033334905, Final residual = 0.0011339967, No Iterations 2
DICPCG:  Solving for p, Initial residual = 0.0055852217, Final residual = 0.00026316702, No Iterations 6
DICPCG:  Solving for p, Initial residual = 0.001337872, Final residual = 5.9890703e-05, No Iterations 20
time step continuity errors : sum local = 6.376895e-10, global = 8.1784092e-11, cumulative = -6.7648832e-08
DICPCG:  Solving for p, Initial residual = 0.00055651304, Final residual = 2.7555623e-05, No Iterations 17
DICPCG:  Solving for p, Initial residual = 0.00020853087, Final residual = 1.0157489e-05, No Iterations 125
DICPCG:  Solving for p, Initial residual = 0.00017033252, Final residual = 9.5491977e-07, No Iterations 147
time step continuity errors : sum local = 1.0158347e-11, global = -2.2194214e-14, cumulative = -6.7648854e-08
ExecutionTime = 16.63 s  ClockTime = 18 s

Time = 1.4

Courant Number mean: 0.00058159796 max: 0.10286003
smoothSolver:  Solving for Ux, Initial residual = 0.0017376588, Final residual = 1.2339675e-07, No Iterations 1
smoothSolver:  Solving for Uy, Initial residual = 0.0028460826, Final residual = 1.660518e-07, No Iterations 1
smoothSolver:  Solving for Uz, Initial residual = 0.002665949, Final residual = 1.7163327e-07, No Iterations 1
DICPCG:  Solving for p, Initial residual = 0.030854674, Final residual = 0.0010267865, No Iterations 2
DICPCG:  Solving for p, Initial residual = 0.005093062, Final residual = 0.00023577139, No Iterations 7
DICPCG:  Solving for p, Initial residual = 0.0011917581, Final residual = 5.9436576e-05, No Iterations 19
time step continuity errors : sum local = 5.9605545e-10, global = 1.0813128e-10, cumulative = -6.7540723e-08
DICPCG:  Solving for p, Initial residual = 0.00050590429, Final residual = 2.4901324e-05, No Iterations 124
DICPCG:  Solving for p, Initial residual = 0.00031560566, Final residual = 1.3753598e-05, No Iterations 9
DICPCG:  Solving for p, Initial residual = 9.398015e-05, Final residual = 9.886624e-07, No Iterations 63
time step continuity errors : sum local = 9.9034549e-12, global = -4.7430527e-13, cumulative = -6.7541197e-08
ExecutionTime = 17.56 s  ClockTime = 19 s

Time = 1.5

Courant Number mean: 0.00058159192 max: 0.10280981
smoothSolver:  Solving for Ux, Initial residual = 0.0016283709, Final residual = 1.1779837e-07, No Iterations 1
smoothSolver:  Solving for Uy, Initial residual = 0.002669879, Final residual = 1.587761e-07, No Iterations 1
smoothSolver:  Solving for Uz, Initial residual = 0.0024963631, Final residual = 1.6236846e-07, No Iterations 1
DICPCG:  Solving for p, Initial residual = 0.028700639, Final residual = 0.00094858416, No Iterations 2
DICPCG:  Solving for p, Initial residual = 0.0046698993, Final residual = 0.00022386629, No Iterations 7
DICPCG:  Solving for p, Initial residual = 0.0010963976, Final residual = 5.1434646e-05, No Iterations 20
time step continuity errors : sum local = 4.8775248e-10, global = 1.0972624e-10, cumulative = -6.7431471e-08
DICPCG:  Solving for p, Initial residual = 0.0004743659, Final residual = 2.3431561e-05, No Iterations 128
DICPCG:  Solving for p, Initial residual = 0.0003132604, Final residual = 1.3938451e-05, No Iterations 9
DICPCG:  Solving for p, Initial residual = 9.3163412e-05, Final residual = 9.8639439e-07, No Iterations 65
time step continuity errors : sum local = 9.3429308e-12, global = -4.4250092e-13, cumulative = -6.7431913e-08
ExecutionTime = 18.93 s  ClockTime = 20 s

Time = 1.6

Courant Number mean: 0.00058158576 max: 0.10276148
smoothSolver:  Solving for Ux, Initial residual = 0.0015338806, Final residual = 1.1296254e-07, No Iterations 1
smoothSolver:  Solving for Uy, Initial residual = 0.002515943, Final residual = 1.5190713e-07, No Iterations 1
smoothSolver:  Solving for Uz, Initial residual = 0.0023497353, Final residual = 1.5498381e-07, No Iterations 1
DICPCG:  Solving for p, Initial residual = 0.026856492, Final residual = 0.00086735298, No Iterations 2
DICPCG:  Solving for p, Initial residual = 0.0042985967, Final residual = 0.00018622676, No Iterations 8
DICPCG:  Solving for p, Initial residual = 0.0010108388, Final residual = 4.5201025e-05, No Iterations 22
time step continuity errors : sum local = 4.0674712e-10, global = 1.1326377e-10, cumulative = -6.731865e-08
DICPCG:  Solving for p, Initial residual = 0.00044152169, Final residual = 2.0712471e-05, No Iterations 129
DICPCG:  Solving for p, Initial residual = 0.00031276642, Final residual = 1.3611558e-05, No Iterations 6
DICPCG:  Solving for p, Initial residual = 8.5798799e-05, Final residual = 9.7596246e-07, No Iterations 58
time step continuity errors : sum local = 8.7713829e-12, global = -2.4083167e-13, cumulative = -6.731889e-08
ExecutionTime = 19.95 s  ClockTime = 21 s

Time = 1.7

Courant Number mean: 0.00058157948 max: 0.10271264
smoothSolver:  Solving for Ux, Initial residual = 0.0014507025, Final residual = 1.0819482e-07, No Iterations 1
smoothSolver:  Solving for Uy, Initial residual = 0.0023815226, Final residual = 1.4632099e-07, No Iterations 1
smoothSolver:  Solving for Uz, Initial residual = 0.0022212035, Final residual = 1.4807968e-07, No Iterations 1
DICPCG:  Solving for p, Initial residual = 0.025322187, Final residual = 0.000797722, No Iterations 2
DICPCG:  Solving for p, Initial residual = 0.0040123359, Final residual = 0.00018894813, No Iterations 8
DICPCG:  Solving for p, Initial residual = 0.00094377226, Final residual = 4.6851458e-05, No Iterations 23
time step continuity errors : sum local = 4.0125189e-10, global = 1.2099824e-10, cumulative = -6.7197892e-08
DICPCG:  Solving for p, Initial residual = 0.00042727239, Final residual = 2.0542045e-05, No Iterations 127
DICPCG:  Solving for p, Initial residual = 0.00034002181, Final residual = 1.6662806e-05, No Iterations 5
DICPCG:  Solving for p, Initial residual = 9.0644185e-05, Final residual = 9.8758442e-07, No Iterations 62
time step continuity errors : sum local = 8.4467209e-12, global = -2.5729591e-13, cumulative = -6.7198149e-08
ExecutionTime = 20.94 s  ClockTime = 22 s

Time = 1.8

Courant Number mean: 0.00058157278 max: 0.10266481
smoothSolver:  Solving for Ux, Initial residual = 0.0013770692, Final residual = 1.0383036e-07, No Iterations 1
smoothSolver:  Solving for Uy, Initial residual = 0.0022619308, Final residual = 1.4132574e-07, No Iterations 1
smoothSolver:  Solving for Uz, Initial residual = 0.0021075272, Final residual = 1.4213713e-07, No Iterations 1
DICPCG:  Solving for p, Initial residual = 0.023863632, Final residual = 0.00074009662, No Iterations 2
DICPCG:  Solving for p, Initial residual = 0.0037263386, Final residual = 0.00017133155, No Iterations 9
DICPCG:  Solving for p, Initial residual = 0.00090148812, Final residual = 4.3934697e-05, No Iterations 26
time step continuity errors : sum local = 3.5910415e-10, global = 1.2594991e-10, cumulative = -6.70722e-08
DICPCG:  Solving for p, Initial residual = 0.00040353134, Final residual = 1.9136981e-05, No Iterations 127
DICPCG:  Solving for p, Initial residual = 0.000346776, Final residual = 1.5847613e-05, No Iterations 5
DICPCG:  Solving for p, Initial residual = 9.1312124e-05, Final residual = 9.8396094e-07, No Iterations 65
time step continuity errors : sum local = 8.0310261e-12, global = -4.5474715e-13, cumulative = -6.7072654e-08
ExecutionTime = 21.97 s  ClockTime = 23 s

Time = 1.9

Courant Number mean: 0.00058156608 max: 0.10261878
smoothSolver:  Solving for Ux, Initial residual = 0.0013111149, Final residual = 9.9497723e-08, No Iterations 1
smoothSolver:  Solving for Uy, Initial residual = 0.0021550299, Final residual = 1.3708386e-07, No Iterations 1
smoothSolver:  Solving for Uz, Initial residual = 0.0020060666, Final residual = 1.3659265e-07, No Iterations 1
DICPCG:  Solving for p, Initial residual = 0.022604141, Final residual = 0.0006898352, No Iterations 2
DICPCG:  Solving for p, Initial residual = 0.0034982141, Final residual = 0.00017433373, No Iterations 9
DICPCG:  Solving for p, Initial residual = 0.0008558916, Final residual = 4.2414452e-05, No Iterations 28
time step continuity errors : sum local = 3.3164599e-10, global = 1.289037e-10, cumulative = -6.6943751e-08
DICPCG:  Solving for p, Initial residual = 0.00039712794, Final residual = 1.939851e-05, No Iterations 128
DICPCG:  Solving for p, Initial residual = 0.0003645885, Final residual = 1.6388373e-05, No Iterations 5
DICPCG:  Solving for p, Initial residual = 9.4611501e-05, Final residual = 9.8824206e-07, No Iterations 69
time step continuity errors : sum local = 7.7156937e-12, global = -3.822259e-13, cumulative = -6.6944133e-08
ExecutionTime = 23 s  ClockTime = 24 s

Time = 2

Courant Number mean: 0.00058156064 max: 0.1025758
smoothSolver:  Solving for Ux, Initial residual = 0.0012516869, Final residual = 9.5643801e-08, No Iterations 1
smoothSolver:  Solving for Uy, Initial residual = 0.0020597324, Final residual = 1.3411135e-07, No Iterations 1
smoothSolver:  Solving for Uz, Initial residual = 0.0019152913, Final residual = 1.3183158e-07, No Iterations 1
DICPCG:  Solving for p, Initial residual = 0.021535975, Final residual = 0.0006509898, No Iterations 2
DICPCG:  Solving for p, Initial residual = 0.0033091149, Final residual = 0.00015721116, No Iterations 14
DICPCG:  Solving for p, Initial residual = 0.00084992285, Final residual = 4.1980158e-05, No Iterations 21
time step continuity errors : sum local = 3.1470606e-10, global = 1.1886703e-10, cumulative = -6.6825266e-08
DICPCG:  Solving for p, Initial residual = 0.00036402055, Final residual = 1.8013633e-05, No Iterations 128
DICPCG:  Solving for p, Initial residual = 0.00035324909, Final residual = 1.5787376e-05, No Iterations 5
DICPCG:  Solving for p, Initial residual = 9.2165453e-05, Final residual = 9.8475535e-07, No Iterations 60
time step continuity errors : sum local = 7.3714391e-12, global = -7.2066382e-13, cumulative = -6.6825986e-08
ExecutionTime = 24.22 s  ClockTime = 25 s

Time = 2.1

Courant Number mean: 0.00058155551 max: 0.10253485
smoothSolver:  Solving for Ux, Initial residual = 0.0011977202, Final residual = 9.189262e-08, No Iterations 1
smoothSolver:  Solving for Uy, Initial residual = 0.0019744194, Final residual = 1.3060409e-07, No Iterations 1
smoothSolver:  Solving for Uz, Initial residual = 0.0018327484, Final residual = 1.268842e-07, No Iterations 1
DICPCG:  Solving for p, Initial residual = 0.02046022, Final residual = 0.00063574831, No Iterations 2
DICPCG:  Solving for p, Initial residual = 0.003117623, Final residual = 0.00013856563, No Iterations 15
DICPCG:  Solving for p, Initial residual = 0.00081491218, Final residual = 3.7756407e-05, No Iterations 22
time step continuity errors : sum local = 2.7196137e-10, global = 1.1389317e-10, cumulative = -6.6712093e-08
DICPCG:  Solving for p, Initial residual = 0.00034826103, Final residual = 1.6492433e-05, No Iterations 119
DICPCG:  Solving for p, Initial residual = 0.00034551565, Final residual = 1.4419514e-05, No Iterations 5
DICPCG:  Solving for p, Initial residual = 8.9084766e-05, Final residual = 9.6712876e-07, No Iterations 54
time step continuity errors : sum local = 6.9562791e-12, global = -6.0176127e-13, cumulative = -6.6712695e-08
ExecutionTime = 25.15 s  ClockTime = 26 s

Time = 2.2

Courant Number mean: 0.00058155052 max: 0.10249867
smoothSolver:  Solving for Ux, Initial residual = 0.0011487314, Final residual = 8.8400531e-08, No Iterations 1
smoothSolver:  Solving for Uy, Initial residual = 0.0018967784, Final residual = 1.273117e-07, No Iterations 1
smoothSolver:  Solving for Uz, Initial residual = 0.0017583874, Final residual = 1.224334e-07, No Iterations 1
DICPCG:  Solving for p, Initial residual = 0.019630729, Final residual = 0.00059703337, No Iterations 2
DICPCG:  Solving for p, Initial residual = 0.0029779274, Final residual = 0.00013987243, No Iterations 15
DICPCG:  Solving for p, Initial residual = 0.00079416116, Final residual = 3.8623886e-05, No Iterations 127
time step continuity errors : sum local = 2.6783496e-10, global = 6.8210408e-13, cumulative = -6.6712013e-08
DICPCG:  Solving for p, Initial residual = 0.00049498702, Final residual = 2.3819843e-05, No Iterations 6
DICPCG:  Solving for p, Initial residual = 0.0001386296, Final residual = 6.752242e-06, No Iterations 33
DICPCG:  Solving for p, Initial residual = 7.8367077e-05, Final residual = 9.4399379e-07, No Iterations 78
time step continuity errors : sum local = 6.5364604e-12, global = 1.0495754e-12, cumulative = -6.6710963e-08
ExecutionTime = 26.21 s  ClockTime = 28 s

Time = 2.3

Courant Number mean: 0.00058154585 max: 0.10246627
smoothSolver:  Solving for Ux, Initial residual = 0.0011039281, Final residual = 8.486528e-08, No Iterations 1
smoothSolver:  Solving for Uy, Initial residual = 0.0018257372, Final residual = 1.2514791e-07, No Iterations 1
smoothSolver:  Solving for Uz, Initial residual = 0.0016904874, Final residual = 1.1847684e-07, No Iterations 1
DICPCG:  Solving for p, Initial residual = 0.01872256, Final residual = 0.00056892443, No Iterations 2
DICPCG:  Solving for p, Initial residual = 0.0028134593, Final residual = 0.00013990245, No Iterations 15
DICPCG:  Solving for p, Initial residual = 0.00076947284, Final residual = 3.5683576e-05, No Iterations 131
time step continuity errors : sum local = 2.3869549e-10, global = 7.2276982e-13, cumulative = -6.6710241e-08
DICPCG:  Solving for p, Initial residual = 0.00054200021, Final residual = 2.3548026e-05, No Iterations 6
DICPCG:  Solving for p, Initial residual = 0.00014583785, Final residual = 7.0503938e-06, No Iterations 40
DICPCG:  Solving for p, Initial residual = 9.4523688e-05, Final residual = 9.3527722e-07, No Iterations 63
time step continuity errors : sum local = 6.2455897e-12, global = 1.9110415e-13, cumulative = -6.6710049e-08
ExecutionTime = 27.29 s  ClockTime = 29 s

Time = 2.4

Courant Number mean: 0.00058154201 max: 0.10243357
smoothSolver:  Solving for Ux, Initial residual = 0.0010626765, Final residual = 8.2299321e-08, No Iterations 1
smoothSolver:  Solving for Uy, Initial residual = 0.0017603178, Final residual = 1.2256462e-07, No Iterations 1
smoothSolver:  Solving for Uz, Initial residual = 0.0016286489, Final residual = 1.1486684e-07, No Iterations 1
DICPCG:  Solving for p, Initial residual = 0.018011035, Final residual = 0.00054280146, No Iterations 2
DICPCG:  Solving for p, Initial residual = 0.0026807607, Final residual = 0.00013193932, No Iterations 15
DICPCG:  Solving for p, Initial residual = 0.00073083383, Final residual = 3.3316909e-05, No Iterations 130
time step continuity errors : sum local = 2.1523353e-10, global = 6.4569953e-13, cumulative = -6.6709404e-08
DICPCG:  Solving for p, Initial residual = 0.00050900102, Final residual = 2.203846e-05, No Iterations 6
DICPCG:  Solving for p, Initial residual = 0.00013769353, Final residual = 6.7492172e-06, No Iterations 40
DICPCG:  Solving for p, Initial residual = 8.8579933e-05, Final residual = 9.4955923e-07, No Iterations 54
time step continuity errors : sum local = 6.1247125e-12, global = 3.1626062e-13, cumulative = -6.6709088e-08
ExecutionTime = 28.31 s  ClockTime = 30 s

Time = 2.5

Courant Number mean: 0.00058153809 max: 0.10240105
smoothSolver:  Solving for Ux, Initial residual = 0.0010247209, Final residual = 8.0645429e-08, No Iterations 1
smoothSolver:  Solving for Uy, Initial residual = 0.0016996406, Final residual = 1.2055278e-07, No Iterations 1
smoothSolver:  Solving for Uz, Initial residual = 0.0015711016, Final residual = 1.1071517e-07, No Iterations 1
DICPCG:  Solving for p, Initial residual = 0.017367564, Final residual = 0.00053061152, No Iterations 2
DICPCG:  Solving for p, Initial residual = 0.0025732111, Final residual = 0.00011957778, No Iterations 16
DICPCG:  Solving for p, Initial residual = 0.0007198178, Final residual = 3.5787888e-05, No Iterations 132
time step continuity errors : sum local = 2.2359225e-10, global = 6.0303571e-13, cumulative = -6.6708484e-08
DICPCG:  Solving for p, Initial residual = 0.00050932531, Final residual = 2.2967921e-05, No Iterations 6
DICPCG:  Solving for p, Initial residual = 0.00013681912, Final residual = 6.8066068e-06, No Iterations 41
DICPCG:  Solving for p, Initial residual = 8.8716316e-05, Final residual = 9.8844405e-07, No Iterations 65
time step continuity errors : sum local = 6.1658841e-12, global = 6.2302685e-13, cumulative = -6.6707861e-08
ExecutionTime = 29.56 s  ClockTime = 31 s

Time = 2.6

Courant Number mean: 0.00058153464 max: 0.10235809
smoothSolver:  Solving for Ux, Initial residual = 0.0009896204, Final residual = 7.7968004e-08, No Iterations 1
smoothSolver:  Solving for Uy, Initial residual = 0.0016435335, Final residual = 1.1739244e-07, No Iterations 1
smoothSolver:  Solving for Uz, Initial residual = 0.0015181342, Final residual = 1.0802349e-07, No Iterations 1
DICPCG:  Solving for p, Initial residual = 0.016579344, Final residual = 0.000504356, No Iterations 2
DICPCG:  Solving for p, Initial residual = 0.0024451562, Final residual = 0.00011660512, No Iterations 16
DICPCG:  Solving for p, Initial residual = 0.00069505019, Final residual = 3.465221e-05, No Iterations 129
time step continuity errors : sum local = 2.0970886e-10, global = 1.354654e-13, cumulative = -6.6707726e-08
DICPCG:  Solving for p, Initial residual = 0.00052413564, Final residual = 2.2146203e-05, No Iterations 6
DICPCG:  Solving for p, Initial residual = 0.00014001998, Final residual = 6.7034444e-06, No Iterations 40
DICPCG:  Solving for p, Initial residual = 8.5029451e-05, Final residual = 8.9543924e-07, No Iterations 53
time step continuity errors : sum local = 5.4100804e-12, global = -1.6583613e-13, cumulative = -6.6707892e-08
ExecutionTime = 30.56 s  ClockTime = 32 s

Time = 2.7

Courant Number mean: 0.00058153111 max: 0.10231773
smoothSolver:  Solving for Ux, Initial residual = 0.00095695826, Final residual = 7.4876683e-08, No Iterations 1
smoothSolver:  Solving for Uy, Initial residual = 0.0015918188, Final residual = 1.137217e-07, No Iterations 1
smoothSolver:  Solving for Uz, Initial residual = 0.0014688537, Final residual = 1.0485837e-07, No Iterations 1
DICPCG:  Solving for p, Initial residual = 0.015899692, Final residual = 0.00049214592, No Iterations 2
DICPCG:  Solving for p, Initial residual = 0.0023436312, Final residual = 0.00011511362, No Iterations 16
DICPCG:  Solving for p, Initial residual = 0.00066968077, Final residual = 3.260373e-05, No Iterations 131
time step continuity errors : sum local = 1.9137338e-10, global = 3.590483e-13, cumulative = -6.6707533e-08
DICPCG:  Solving for p, Initial residual = 0.00049946186, Final residual = 2.114935e-05, No Iterations 6
DICPCG:  Solving for p, Initial residual = 0.00013326685, Final residual = 6.6449271e-06, No Iterations 40
DICPCG:  Solving for p, Initial residual = 8.2918474e-05, Final residual = 9.7253251e-07, No Iterations 54
time step continuity errors : sum local = 5.6995906e-12, global = 6.5596369e-15, cumulative = -6.6707526e-08
ExecutionTime = 31.57 s  ClockTime = 33 s

Time = 2.8

Courant Number mean: 0.00058152776 max: 0.1022873
smoothSolver:  Solving for Ux, Initial residual = 0.00092665008, Final residual = 7.2692333e-08, No Iterations 1
smoothSolver:  Solving for Uy, Initial residual = 0.0015437463, Final residual = 1.1128193e-07, No Iterations 1
smoothSolver:  Solving for Uz, Initial residual = 0.001423291, Final residual = 1.0192667e-07, No Iterations 1
DICPCG:  Solving for p, Initial residual = 0.015366851, Final residual = 0.00048253643, No Iterations 2
DICPCG:  Solving for p, Initial residual = 0.0022690726, Final residual = 0.00011118775, No Iterations 17
DICPCG:  Solving for p, Initial residual = 0.000651493, Final residual = 3.2430049e-05, No Iterations 128
time step continuity errors : sum local = 1.8486056e-10, global = 3.7319292e-13, cumulative = -6.6707153e-08
DICPCG:  Solving for p, Initial residual = 0.00048503853, Final residual = 2.2140943e-05, No Iterations 6
DICPCG:  Solving for p, Initial residual = 0.00012994657, Final residual = 6.2196225e-06, No Iterations 42
DICPCG:  Solving for p, Initial residual = 8.8646322e-05, Final residual = 9.9746715e-07, No Iterations 54
time step continuity errors : sum local = 5.677493e-12, global = 3.190061e-13, cumulative = -6.6706834e-08
ExecutionTime = 32.57 s  ClockTime = 34 s

Time = 2.9

Courant Number mean: 0.00058152436 max: 0.10226195
smoothSolver:  Solving for Ux, Initial residual = 0.00089870637, Final residual = 7.0537955e-08, No Iterations 1
smoothSolver:  Solving for Uy, Initial residual = 0.0014992636, Final residual = 1.0919082e-07, No Iterations 1
smoothSolver:  Solving for Uz, Initial residual = 0.0013808758, Final residual = 9.9149803e-08, No Iterations 1
DICPCG:  Solving for p, Initial residual = 0.014769734, Final residual = 0.00046292888, No Iterations 2
DICPCG:  Solving for p, Initial residual = 0.002150281, Final residual = 0.00010570763, No Iterations 19
DICPCG:  Solving for p, Initial residual = 0.00063154824, Final residual = 3.1453618e-05, No Iterations 129
time step continuity errors : sum local = 1.7434415e-10, global = 4.6178312e-13, cumulative = -6.6706372e-08
DICPCG:  Solving for p, Initial residual = 0.00047886487, Final residual = 2.092567e-05, No Iterations 6
DICPCG:  Solving for p, Initial residual = 0.00012756256, Final residual = 5.8151655e-06, No Iterations 42
DICPCG:  Solving for p, Initial residual = 8.1924102e-05, Final residual = 9.7256674e-07, No Iterations 55
time step continuity errors : sum local = 5.3828626e-12, global = 7.394384e-14, cumulative = -6.6706298e-08
ExecutionTime = 33.6 s  ClockTime = 35 s

Time = 3

Courant Number mean: 0.00058152114 max: 0.10223883
smoothSolver:  Solving for Ux, Initial residual = 0.00087265432, Final residual = 6.7637028e-08, No Iterations 1
smoothSolver:  Solving for Uy, Initial residual = 0.0014575238, Final residual = 1.0710482e-07, No Iterations 1
smoothSolver:  Solving for Uz, Initial residual = 0.0013412245, Final residual = 9.6257281e-08, No Iterations 1
DICPCG:  Solving for p, Initial residual = 0.014362295, Final residual = 0.0004595942, No Iterations 2
DICPCG:  Solving for p, Initial residual = 0.0020839309, Final residual = 0.00010211986, No Iterations 19
DICPCG:  Solving for p, Initial residual = 0.00062275787, Final residual = 3.0660339e-05, No Iterations 128
time step continuity errors : sum local = 1.6540197e-10, global = 2.6245441e-13, cumulative = -6.6706036e-08
DICPCG:  Solving for p, Initial residual = 0.00047553866, Final residual = 2.0719321e-05, No Iterations 6
DICPCG:  Solving for p, Initial residual = 0.0001265042, Final residual = 6.206213e-06, No Iterations 41
DICPCG:  Solving for p, Initial residual = 8.0134109e-05, Final residual = 9.5649721e-07, No Iterations 53
time step continuity errors : sum local = 5.1523609e-12, global = 6.332735e-14, cumulative = -6.6705973e-08
ExecutionTime = 34.88 s  ClockTime = 36 s

Time = 3.1

Courant Number mean: 0.00058151793 max: 0.10221761
smoothSolver:  Solving for Ux, Initial residual = 0.000848462, Final residual = 6.5451029e-08, No Iterations 1
smoothSolver:  Solving for Uy, Initial residual = 0.0014186001, Final residual = 1.0543157e-07, No Iterations 1
smoothSolver:  Solving for Uz, Initial residual = 0.0013044463, Final residual = 9.4276012e-08, No Iterations 1
DICPCG:  Solving for p, Initial residual = 0.013815963, Final residual = 0.00043624494, No Iterations 2
DICPCG:  Solving for p, Initial residual = 0.001999078, Final residual = 9.0816501e-05, No Iterations 20
DICPCG:  Solving for p, Initial residual = 0.0006082432, Final residual = 3.0102092e-05, No Iterations 125
time step continuity errors : sum local = 1.582141e-10, global = 4.7542025e-13, cumulative = -6.6705497e-08
DICPCG:  Solving for p, Initial residual = 0.00046899449, Final residual = 2.0031507e-05, No Iterations 6
DICPCG:  Solving for p, Initial residual = 0.00012400944, Final residual = 5.7206239e-06, No Iterations 42
DICPCG:  Solving for p, Initial residual = 7.8468993e-05, Final residual = 9.0013468e-07, No Iterations 53
time step continuity errors : sum local = 4.7241499e-12, global = -4.2433212e-13, cumulative = -6.6705921e-08
ExecutionTime = 35.91 s  ClockTime = 37 s

Time = 3.2

Courant Number mean: 0.00058151496 max: 0.1021981
smoothSolver:  Solving for Ux, Initial residual = 0.00082562498, Final residual = 6.3447221e-08, No Iterations 1
smoothSolver:  Solving for Uy, Initial residual = 0.0013818816, Final residual = 1.0367866e-07, No Iterations 1
smoothSolver:  Solving for Uz, Initial residual = 0.0012694246, Final residual = 9.192713e-08, No Iterations 1
DICPCG:  Solving for p, Initial residual = 0.013342821, Final residual = 0.00045087968, No Iterations 2
DICPCG:  Solving for p, Initial residual = 0.0019337325, Final residual = 8.8287608e-05, No Iterations 20
DICPCG:  Solving for p, Initial residual = 0.00058521675, Final residual = 2.9165909e-05, No Iterations 130
time step continuity errors : sum local = 1.495052e-10, global = 4.4174768e-13, cumulative = -6.670548e-08
DICPCG:  Solving for p, Initial residual = 0.00043489552, Final residual = 1.9780906e-05, No Iterations 6
DICPCG:  Solving for p, Initial residual = 0.00011656748, Final residual = 5.7194713e-06, No Iterations 42
DICPCG:  Solving for p, Initial residual = 7.3841061e-05, Final residual = 9.5178285e-07, No Iterations 54
time step continuity errors : sum local = 4.8725103e-12, global = -8.2805799e-14, cumulative = -6.6705562e-08
ExecutionTime = 36.95 s  ClockTime = 38 s

Time = 3.3

Courant Number mean: 0.00058151186 max: 0.10218127
smoothSolver:  Solving for Ux, Initial residual = 0.000804114, Final residual = 6.1569645e-08, No Iterations 1
smoothSolver:  Solving for Uy, Initial residual = 0.0013470864, Final residual = 1.0173187e-07, No Iterations 1
smoothSolver:  Solving for Uz, Initial residual = 0.0012364056, Final residual = 8.9712385e-08, No Iterations 1
DICPCG:  Solving for p, Initial residual = 0.012899426, Final residual = 0.00046106406, No Iterations 2
DICPCG:  Solving for p, Initial residual = 0.0018666294, Final residual = 8.5915309e-05, No Iterations 20
DICPCG:  Solving for p, Initial residual = 0.00056806057, Final residual = 2.8039915e-05, No Iterations 129
time step continuity errors : sum local = 1.4033743e-10, global = 3.7498268e-13, cumulative = -6.6705187e-08
DICPCG:  Solving for p, Initial residual = 0.00041082766, Final residual = 1.9236899e-05, No Iterations 6
DICPCG:  Solving for p, Initial residual = 0.00011024408, Final residual = 5.3001081e-06, No Iterations 43
DICPCG:  Solving for p, Initial residual = 7.3653845e-05, Final residual = 9.1910671e-07, No Iterations 54
time step continuity errors : sum local = 4.5945573e-12, global = -1.6495397e-15, cumulative = -6.6705189e-08
ExecutionTime = 37.96 s  ClockTime = 39 s

Time = 3.4

Courant Number mean: 0.00058150879 max: 0.10216799
smoothSolver:  Solving for Ux, Initial residual = 0.00078398449, Final residual = 5.9775436e-08, No Iterations 1
smoothSolver:  Solving for Uy, Initial residual = 0.001314687, Final residual = 9.9944333e-08, No Iterations 1
smoothSolver:  Solving for Uz, Initial residual = 0.0012053112, Final residual = 8.7550218e-08, No Iterations 1
DICPCG:  Solving for p, Initial residual = 0.012543432, Final residual = 0.00044881353, No Iterations 2
DICPCG:  Solving for p, Initial residual = 0.0018329006, Final residual = 8.422167e-05, No Iterations 20
DICPCG:  Solving for p, Initial residual = 0.0005606668, Final residual = 2.7290317e-05, No Iterations 129
time step continuity errors : sum local = 1.3347046e-10, global = 4.9323489e-13, cumulative = -6.6704696e-08
DICPCG:  Solving for p, Initial residual = 0.00040814222, Final residual = 1.848294e-05, No Iterations 6
DICPCG:  Solving for p, Initial residual = 0.00010910345, Final residual = 5.2754471e-06, No Iterations 42
DICPCG:  Solving for p, Initial residual = 7.3299914e-05, Final residual = 9.2010448e-07, No Iterations 53
time step continuity errors : sum local = 4.4947465e-12, global = 1.0763808e-13, cumulative = -6.6704588e-08
ExecutionTime = 39.1 s  ClockTime = 40 s

Time = 3.5

Courant Number mean: 0.00058150572 max: 0.10215934
smoothSolver:  Solving for Ux, Initial residual = 0.00076529124, Final residual = 5.8194301e-08, No Iterations 1
smoothSolver:  Solving for Uy, Initial residual = 0.0012838893, Final residual = 9.8032878e-08, No Iterations 1
smoothSolver:  Solving for Uz, Initial residual = 0.0011758622, Final residual = 8.5396619e-08, No Iterations 1
DICPCG:  Solving for p, Initial residual = 0.012143651, Final residual = 0.00044530233, No Iterations 2
DICPCG:  Solving for p, Initial residual = 0.0017751688, Final residual = 8.4330872e-05, No Iterations 20
DICPCG:  Solving for p, Initial residual = 0.0005557071, Final residual = 2.7333254e-05, No Iterations 129
time step continuity errors : sum local = 1.3074244e-10, global = 4.376089e-13, cumulative = -6.6704151e-08
DICPCG:  Solving for p, Initial residual = 0.00040545154, Final residual = 1.9234526e-05, No Iterations 6
DICPCG:  Solving for p, Initial residual = 0.00010962126, Final residual = 5.1245237e-06, No Iterations 42
DICPCG:  Solving for p, Initial residual = 7.2145509e-05, Final residual = 8.5409753e-07, No Iterations 53
time step continuity errors : sum local = 4.0806495e-12, global = 3.5074434e-14, cumulative = -6.6704116e-08
ExecutionTime = 40.59 s  ClockTime = 42 s

Time = 3.6

Courant Number mean: 0.00058150293 max: 0.10215517
smoothSolver:  Solving for Ux, Initial residual = 0.00074750429, Final residual = 5.6716895e-08, No Iterations 1
smoothSolver:  Solving for Uy, Initial residual = 0.0012546, Final residual = 9.5767614e-08, No Iterations 1
smoothSolver:  Solving for Uz, Initial residual = 0.0011478857, Final residual = 8.2646062e-08, No Iterations 1
DICPCG:  Solving for p, Initial residual = 0.011843701, Final residual = 0.00043730179, No Iterations 2
DICPCG:  Solving for p, Initial residual = 0.0017294769, Final residual = 8.1712458e-05, No Iterations 22
DICPCG:  Solving for p, Initial residual = 0.00055542252, Final residual = 2.7507971e-05, No Iterations 127
time step continuity errors : sum local = 1.2877054e-10, global = 2.2987502e-13, cumulative = -6.6703886e-08
DICPCG:  Solving for p, Initial residual = 0.00041226527, Final residual = 1.9658156e-05, No Iterations 6
DICPCG:  Solving for p, Initial residual = 0.00011007672, Final residual = 5.4106267e-06, No Iterations 43
DICPCG:  Solving for p, Initial residual = 7.7989868e-05, Final residual = 9.7912473e-07, No Iterations 54
time step continuity errors : sum local = 4.578029e-12, global = -1.4905052e-13, cumulative = -6.6704035e-08
ExecutionTime = 41.64 s  ClockTime = 43 s

Time = 3.7

Courant Number mean: 0.00058150036 max: 0.10215681
smoothSolver:  Solving for Ux, Initial residual = 0.00073056805, Final residual = 5.5165584e-08, No Iterations 1
smoothSolver:  Solving for Uy, Initial residual = 0.0012268628, Final residual = 9.409894e-08, No Iterations 1
smoothSolver:  Solving for Uz, Initial residual = 0.0011212445, Final residual = 8.0518781e-08, No Iterations 1
DICPCG:  Solving for p, Initial residual = 0.011517326, Final residual = 0.00043467227, No Iterations 2
DICPCG:  Solving for p, Initial residual = 0.0016886648, Final residual = 8.442528e-05, No Iterations 21
DICPCG:  Solving for p, Initial residual = 0.00054991965, Final residual = 2.6963279e-05, No Iterations 133
time step continuity errors : sum local = 1.2361953e-10, global = 2.4174361e-13, cumulative = -6.6703793e-08
DICPCG:  Solving for p, Initial residual = 0.00040764524, Final residual = 1.9160677e-05, No Iterations 6
DICPCG:  Solving for p, Initial residual = 0.00010952239, Final residual = 5.4393092e-06, No Iterations 41
DICPCG:  Solving for p, Initial residual = 6.2078914e-05, Final residual = 8.973612e-07, No Iterations 54
time step continuity errors : sum local = 4.1092738e-12, global = -2.8456754e-13, cumulative = -6.6704078e-08
ExecutionTime = 42.71 s  ClockTime = 44 s

Time = 3.8

Courant Number mean: 0.0005814979 max: 0.10216449
smoothSolver:  Solving for Ux, Initial residual = 0.00071434701, Final residual = 5.3629993e-08, No Iterations 1
smoothSolver:  Solving for Uy, Initial residual = 0.0012004336, Final residual = 9.2255286e-08, No Iterations 1
smoothSolver:  Solving for Uz, Initial residual = 0.0010958393, Final residual = 7.84279e-08, No Iterations 1
DICPCG:  Solving for p, Initial residual = 0.011264008, Final residual = 0.00042615937, No Iterations 2
DICPCG:  Solving for p, Initial residual = 0.0016553399, Final residual = 7.8078326e-05, No Iterations 22
DICPCG:  Solving for p, Initial residual = 0.00054304811, Final residual = 2.6336611e-05, No Iterations 134
time step continuity errors : sum local = 1.1830076e-10, global = -1.2496939e-14, cumulative = -6.670409e-08
DICPCG:  Solving for p, Initial residual = 0.00040151668, Final residual = 1.7978434e-05, No Iterations 6
DICPCG:  Solving for p, Initial residual = 0.00010719912, Final residual = 5.0719913e-06, No Iterations 33
DICPCG:  Solving for p, Initial residual = 5.3890441e-05, Final residual = 9.9567258e-07, No Iterations 60
time step continuity errors : sum local = 4.4672216e-12, global = -3.6131473e-13, cumulative = -6.6704451e-08
ExecutionTime = 43.75 s  ClockTime = 45 s

Time = 3.9

Courant Number mean: 0.00058149608 max: 0.1021772
smoothSolver:  Solving for Ux, Initial residual = 0.00069886334, Final residual = 5.2239949e-08, No Iterations 1
smoothSolver:  Solving for Uy, Initial residual = 0.001175182, Final residual = 9.0387046e-08, No Iterations 1
smoothSolver:  Solving for Uz, Initial residual = 0.0010717783, Final residual = 7.6757347e-08, No Iterations 1
DICPCG:  Solving for p, Initial residual = 0.010916293, Final residual = 0.00041205504, No Iterations 2
DICPCG:  Solving for p, Initial residual = 0.0016006049, Final residual = 7.8827695e-05, No Iterations 21
DICPCG:  Solving for p, Initial residual = 0.00052336572, Final residual = 2.6094738e-05, No Iterations 131
time step continuity errors : sum local = 1.1493823e-10, global = 3.5320973e-13, cumulative = -6.6704098e-08
DICPCG:  Solving for p, Initial residual = 0.00038357571, Final residual = 1.827256e-05, No Iterations 6
DICPCG:  Solving for p, Initial residual = 0.00010366379, Final residual = 4.6965645e-06, No Iterations 42
DICPCG:  Solving for p, Initial residual = 6.3901951e-05, Final residual = 9.6812658e-07, No Iterations 53
time step continuity errors : sum local = 4.2596095e-12, global = -2.0343704e-13, cumulative = -6.6704302e-08
ExecutionTime = 44.77 s  ClockTime = 46 s

Time = 4

Courant Number mean: 0.00058149448 max: 0.10219367
smoothSolver:  Solving for Ux, Initial residual = 0.00068427235, Final residual = 5.0854404e-08, No Iterations 1
smoothSolver:  Solving for Uy, Initial residual = 0.0011514675, Final residual = 8.8627385e-08, No Iterations 1
smoothSolver:  Solving for Uz, Initial residual = 0.001048827, Final residual = 7.5328197e-08, No Iterations 1
DICPCG:  Solving for p, Initial residual = 0.010637536, Final residual = 0.00040602067, No Iterations 2
DICPCG:  Solving for p, Initial residual = 0.0015591257, Final residual = 7.6206202e-05, No Iterations 22
DICPCG:  Solving for p, Initial residual = 0.00051504007, Final residual = 2.4787821e-05, No Iterations 134
time step continuity errors : sum local = 1.0713553e-10, global = 5.2590584e-14, cumulative = -6.6704249e-08
DICPCG:  Solving for p, Initial residual = 0.00037116158, Final residual = 1.7335259e-05, No Iterations 6
DICPCG:  Solving for p, Initial residual = 9.9372701e-05, Final residual = 4.965629e-06, No Iterations 33
DICPCG:  Solving for p, Initial residual = 5.092174e-05, Final residual = 9.9227247e-07, No Iterations 56
time step continuity errors : sum local = 4.2842075e-12, global = -3.7501831e-13, cumulative = -6.6704624e-08
ExecutionTime = 45.99 s  ClockTime = 47 s

Time = 4.1

Courant Number mean: 0.0005814929 max: 0.102213
smoothSolver:  Solving for Ux, Initial residual = 0.00067033313, Final residual = 4.9501282e-08, No Iterations 1
smoothSolver:  Solving for Uy, Initial residual = 0.001128711, Final residual = 8.6940445e-08, No Iterations 1
smoothSolver:  Solving for Uz, Initial residual = 0.0010269339, Final residual = 7.3778542e-08, No Iterations 1
DICPCG:  Solving for p, Initial residual = 0.010325045, Final residual = 0.00040355849, No Iterations 2
DICPCG:  Solving for p, Initial residual = 0.0015034158, Final residual = 7.4080336e-05, No Iterations 22
DICPCG:  Solving for p, Initial residual = 0.00050039923, Final residual = 2.4625695e-05, No Iterations 126
time step continuity errors : sum local = 1.045122e-10, global = 1.5988744e-13, cumulative = -6.6704464e-08
DICPCG:  Solving for p, Initial residual = 0.0003629039, Final residual = 1.7870726e-05, No Iterations 6
DICPCG:  Solving for p, Initial residual = 9.6964494e-05, Final residual = 4.3068524e-06, No Iterations 44
DICPCG:  Solving for p, Initial residual = 7.0990277e-05, Final residual = 9.0971571e-07, No Iterations 53
time step continuity errors : sum local = 3.8570082e-12, global = -2.2541022e-13, cumulative = -6.670469e-08
ExecutionTime = 47.03 s  ClockTime = 48 s

Time = 4.2

Courant Number mean: 0.00058149139 max: 0.10223348
smoothSolver:  Solving for Ux, Initial residual = 0.00065706089, Final residual = 4.8211734e-08, No Iterations 1
smoothSolver:  Solving for Uy, Initial residual = 0.0011072971, Final residual = 8.5162998e-08, No Iterations 1
smoothSolver:  Solving for Uz, Initial residual = 0.0010060856, Final residual = 7.2111029e-08, No Iterations 1
DICPCG:  Solving for p, Initial residual = 0.010055768, Final residual = 0.00040484049, No Iterations 2
DICPCG:  Solving for p, Initial residual = 0.0014698711, Final residual = 7.2267456e-05, No Iterations 22
DICPCG:  Solving for p, Initial residual = 0.00049156507, Final residual = 2.3571812e-05, No Iterations 134
time step continuity errors : sum local = 9.8288222e-11, global = 8.2605743e-14, cumulative = -6.6704607e-08
DICPCG:  Solving for p, Initial residual = 0.00034729709, Final residual = 1.7130978e-05, No Iterations 6
DICPCG:  Solving for p, Initial residual = 9.4365349e-05, Final residual = 4.6440468e-06, No Iterations 33
DICPCG:  Solving for p, Initial residual = 4.8131302e-05, Final residual = 9.9507407e-07, No Iterations 57
time step continuity errors : sum local = 4.1451891e-12, global = -3.7464349e-13, cumulative = -6.6704982e-08
ExecutionTime = 48.07 s  ClockTime = 49 s

Time = 4.3

Courant Number mean: 0.00058149008 max: 0.10225475
smoothSolver:  Solving for Ux, Initial residual = 0.0006445112, Final residual = 4.7084582e-08, No Iterations 1
smoothSolver:  Solving for Uy, Initial residual = 0.001086801, Final residual = 8.3516832e-08, No Iterations 1
smoothSolver:  Solving for Uz, Initial residual = 0.00098617359, Final residual = 7.0451748e-08, No Iterations 1
DICPCG:  Solving for p, Initial residual = 0.0098334923, Final residual = 0.00040617937, No Iterations 2
DICPCG:  Solving for p, Initial residual = 0.0014409176, Final residual = 7.1572334e-05, No Iterations 22
DICPCG:  Solving for p, Initial residual = 0.00048007625, Final residual = 2.2723755e-05, No Iterations 123
time step continuity errors : sum local = 9.3139307e-11, global = 1.7788354e-13, cumulative = -6.6704804e-08
DICPCG:  Solving for p, Initial residual = 0.00032969406, Final residual = 1.6377706e-05, No Iterations 6
DICPCG:  Solving for p, Initial residual = 8.9501942e-05, Final residual = 4.1204881e-06, No Iterations 45
DICPCG:  Solving for p, Initial residual = 6.7673633e-05, Final residual = 9.0882137e-07, No Iterations 53
time step continuity errors : sum local = 3.7217177e-12, global = -7.3644783e-14, cumulative = -6.6704877e-08
ExecutionTime = 49.1 s  ClockTime = 50 s

Time = 4.4

Courant Number mean: 0.0005814891 max: 0.10227574
smoothSolver:  Solving for Ux, Initial residual = 0.00063255043, Final residual = 4.5937565e-08, No Iterations 1
smoothSolver:  Solving for Uy, Initial residual = 0.0010672036, Final residual = 8.2269875e-08, No Iterations 1
smoothSolver:  Solving for Uz, Initial residual = 0.00096733912, Final residual = 6.9150631e-08, No Iterations 1
DICPCG:  Solving for p, Initial residual = 0.0096026597, Final residual = 0.00039487487, No Iterations 2
DICPCG:  Solving for p, Initial residual = 0.0014054677, Final residual = 7.0103599e-05, No Iterations 22
DICPCG:  Solving for p, Initial residual = 0.00047313453, Final residual = 2.3334627e-05, No Iterations 133
time step continuity errors : sum local = 9.4074343e-11, global = 6.0444343e-14, cumulative = -6.6704817e-08
DICPCG:  Solving for p, Initial residual = 0.00032928404, Final residual = 1.6332277e-05, No Iterations 6
DICPCG:  Solving for p, Initial residual = 8.9449542e-05, Final residual = 4.4395019e-06, No Iterations 41
DICPCG:  Solving for p, Initial residual = 5.0586337e-05, Final residual = 8.8363417e-07, No Iterations 53
time step continuity errors : sum local = 3.5592096e-12, global = -2.7675796e-13, cumulative = -6.6705094e-08
ExecutionTime = 50.19 s  ClockTime = 52 s

Time = 4.5

Courant Number mean: 0.0005814883 max: 0.10229403
smoothSolver:  Solving for Ux, Initial residual = 0.00062117484, Final residual = 4.4846866e-08, No Iterations 1
smoothSolver:  Solving for Uy, Initial residual = 0.0010486634, Final residual = 8.1131879e-08, No Iterations 1
smoothSolver:  Solving for Uz, Initial residual = 0.00094947903, Final residual = 6.7847006e-08, No Iterations 1
DICPCG:  Solving for p, Initial residual = 0.0094341873, Final residual = 0.00040394772, No Iterations 2
DICPCG:  Solving for p, Initial residual = 0.0013936913, Final residual = 6.3052994e-05, No Iterations 23
DICPCG:  Solving for p, Initial residual = 0.00047502535, Final residual = 2.3717523e-05, No Iterations 121
time step continuity errors : sum local = 9.4091208e-11, global = 2.6966259e-13, cumulative = -6.6704824e-08
DICPCG:  Solving for p, Initial residual = 0.0003355394, Final residual = 1.5872497e-05, No Iterations 6
DICPCG:  Solving for p, Initial residual = 9.0718237e-05, Final residual = 4.5314608e-06, No Iterations 42
DICPCG:  Solving for p, Initial residual = 6.3304531e-05, Final residual = 8.580127e-07, No Iterations 53
time step continuity errors : sum local = 3.400793e-12, global = -3.1035196e-13, cumulative = -6.6705134e-08
ExecutionTime = 51.49 s  ClockTime = 53 s

Time = 4.6

Courant Number mean: 0.00058148774 max: 0.10230795
smoothSolver:  Solving for Ux, Initial residual = 0.00061039793, Final residual = 4.3956033e-08, No Iterations 1
smoothSolver:  Solving for Uy, Initial residual = 0.0010310439, Final residual = 7.9779394e-08, No Iterations 1
smoothSolver:  Solving for Uz, Initial residual = 0.00093246901, Final residual = 6.6628753e-08, No Iterations 1
DICPCG:  Solving for p, Initial residual = 0.0092169472, Final residual = 0.00039710134, No Iterations 2
DICPCG:  Solving for p, Initial residual = 0.0013593274, Final residual = 6.166715e-05, No Iterations 23
DICPCG:  Solving for p, Initial residual = 0.00046682389, Final residual = 2.251383e-05, No Iterations 135
time step continuity errors : sum local = 8.793576e-11, global = 8.8712457e-14, cumulative = -6.6705046e-08
DICPCG:  Solving for p, Initial residual = 0.00032335511, Final residual = 1.5894716e-05, No Iterations 6
DICPCG:  Solving for p, Initial residual = 8.7714671e-05, Final residual = 4.1519256e-06, No Iterations 25
DICPCG:  Solving for p, Initial residual = 3.9779242e-05, Final residual = 9.5177477e-07, No Iterations 53
time step continuity errors : sum local = 3.7142648e-12, global = -3.4197443e-13, cumulative = -6.6705388e-08
ExecutionTime = 52.51 s  ClockTime = 54 s

Time = 4.7

Courant Number mean: 0.00058148751 max: 0.10231789
smoothSolver:  Solving for Ux, Initial residual = 0.00060002935, Final residual = 4.3119167e-08, No Iterations 1
smoothSolver:  Solving for Uy, Initial residual = 0.0010138965, Final residual = 7.8499384e-08, No Iterations 1
smoothSolver:  Solving for Uz, Initial residual = 0.00091611943, Final residual = 6.5487071e-08, No Iterations 1
DICPCG:  Solving for p, Initial residual = 0.0089806385, Final residual = 0.00038124916, No Iterations 2
DICPCG:  Solving for p, Initial residual = 0.0013219935, Final residual = 6.1711603e-05, No Iterations 23
DICPCG:  Solving for p, Initial residual = 0.00045673111, Final residual = 2.1655863e-05, No Iterations 136
time step continuity errors : sum local = 8.3324794e-11, global = 1.3571245e-13, cumulative = -6.6705252e-08
DICPCG:  Solving for p, Initial residual = 0.00032367857, Final residual = 1.5504427e-05, No Iterations 6
DICPCG:  Solving for p, Initial residual = 8.6942859e-05, Final residual = 4.14675e-06, No Iterations 25
DICPCG:  Solving for p, Initial residual = 3.8780304e-05, Final residual = 9.6462874e-07, No Iterations 48
time step continuity errors : sum local = 3.7083434e-12, global = -3.0417698e-13, cumulative = -6.6705556e-08
ExecutionTime = 53.47 s  ClockTime = 55 s

Time = 4.8

Courant Number mean: 0.00058148781 max: 0.10232442
smoothSolver:  Solving for Ux, Initial residual = 0.00059004854, Final residual = 4.2207507e-08, No Iterations 1
smoothSolver:  Solving for Uy, Initial residual = 0.00099736205, Final residual = 7.7056668e-08, No Iterations 1
smoothSolver:  Solving for Uz, Initial residual = 0.00090067244, Final residual = 6.4238851e-08, No Iterations 1
DICPCG:  Solving for p, Initial residual = 0.008901906, Final residual = 0.00039876004, No Iterations 2
DICPCG:  Solving for p, Initial residual = 0.0013232271, Final residual = 6.4828171e-05, No Iterations 22
DICPCG:  Solving for p, Initial residual = 0.00045104628, Final residual = 2.2013006e-05, No Iterations 17
time step continuity errors : sum local = 8.3465284e-11, global = 3.5593115e-11, cumulative = -6.6669963e-08
DICPCG:  Solving for p, Initial residual = 0.00019281799, Final residual = 8.8499111e-06, No Iterations 140
DICPCG:  Solving for p, Initial residual = 0.00020657395, Final residual = 9.5901922e-06, No Iterations 4
DICPCG:  Solving for p, Initial residual = 5.1760093e-05, Final residual = 9.6701562e-07, No Iterations 37
time step continuity errors : sum local = 3.6639923e-12, global = -1.5262204e-13, cumulative = -6.6670116e-08
ExecutionTime = 54.4 s  ClockTime = 56 s

Time = 4.9

Courant Number mean: 0.00058148885 max: 0.1023284
smoothSolver:  Solving for Ux, Initial residual = 0.00058059908, Final residual = 4.1348029e-08, No Iterations 1
smoothSolver:  Solving for Uy, Initial residual = 0.00098161334, Final residual = 7.5750033e-08, No Iterations 1
smoothSolver:  Solving for Uz, Initial residual = 0.00088563912, Final residual = 6.3147829e-08, No Iterations 1
DICPCG:  Solving for p, Initial residual = 0.0086468326, Final residual = 0.00039786351, No Iterations 2
DICPCG:  Solving for p, Initial residual = 0.0012946221, Final residual = 6.3088181e-05, No Iterations 23
DICPCG:  Solving for p, Initial residual = 0.00045824885, Final residual = 2.2721718e-05, No Iterations 17
time step continuity errors : sum local = 8.4945128e-11, global = 3.6103596e-11, cumulative = -6.6634012e-08
DICPCG:  Solving for p, Initial residual = 0.00019905515, Final residual = 9.4866748e-06, No Iterations 140
DICPCG:  Solving for p, Initial residual = 0.00021481251, Final residual = 1.0293595e-05, No Iterations 4
DICPCG:  Solving for p, Initial residual = 5.3890076e-05, Final residual = 9.48196e-07, No Iterations 49
time step continuity errors : sum local = 3.5422709e-12, global = -1.5201506e-13, cumulative = -6.6634164e-08
ExecutionTime = 55.35 s  ClockTime = 57 s

Time = 5

Courant Number mean: 0.00058149079 max: 0.10233014
smoothSolver:  Solving for Ux, Initial residual = 0.00057155446, Final residual = 4.0378751e-08, No Iterations 1
smoothSolver:  Solving for Uy, Initial residual = 0.0009663499, Final residual = 7.4446219e-08, No Iterations 1
smoothSolver:  Solving for Uz, Initial residual = 0.0008711558, Final residual = 6.1998592e-08, No Iterations 1
DICPCG:  Solving for p, Initial residual = 0.0085362546, Final residual = 0.00039074008, No Iterations 2
DICPCG:  Solving for p, Initial residual = 0.0012926528, Final residual = 6.1853215e-05, No Iterations 23
DICPCG:  Solving for p, Initial residual = 0.00045846418, Final residual = 2.2320272e-05, No Iterations 16
time step continuity errors : sum local = 8.2295662e-11, global = 3.5024866e-11, cumulative = -6.6599139e-08
DICPCG:  Solving for p, Initial residual = 0.00019693674, Final residual = 9.6120485e-06, No Iterations 140
DICPCG:  Solving for p, Initial residual = 0.00021181321, Final residual = 1.0587916e-05, No Iterations 4
DICPCG:  Solving for p, Initial residual = 5.3464411e-05, Final residual = 9.8064585e-07, No Iterations 49
time step continuity errors : sum local = 3.613124e-12, global = -1.3248615e-13, cumulative = -6.6599272e-08
ExecutionTime = 56.54 s  ClockTime = 58 s

Time = 5.1

Courant Number mean: 0.00058149324 max: 0.10232985
smoothSolver:  Solving for Ux, Initial residual = 0.00056294113, Final residual = 3.9649973e-08, No Iterations 1
smoothSolver:  Solving for Uy, Initial residual = 0.00095160484, Final residual = 7.3293819e-08, No Iterations 1
smoothSolver:  Solving for Uz, Initial residual = 0.00085716879, Final residual = 6.0871775e-08, No Iterations 1
DICPCG:  Solving for p, Initial residual = 0.0083097809, Final residual = 0.00038355276, No Iterations 2
DICPCG:  Solving for p, Initial residual = 0.0012465242, Final residual = 6.0535338e-05, No Iterations 23
DICPCG:  Solving for p, Initial residual = 0.00044568816, Final residual = 2.1992603e-05, No Iterations 17
time step continuity errors : sum local = 8.0009519e-11, global = 3.4987894e-11, cumulative = -6.6564284e-08
DICPCG:  Solving for p, Initial residual = 0.00019399529, Final residual = 9.0825656e-06, No Iterations 140
DICPCG:  Solving for p, Initial residual = 0.0002111379, Final residual = 1.0241276e-05, No Iterations 4
DICPCG:  Solving for p, Initial residual = 5.3270758e-05, Final residual = 9.7278032e-07, No Iterations 48
time step continuity errors : sum local = 3.5364952e-12, global = -1.2525685e-13, cumulative = -6.6564409e-08
ExecutionTime = 57.49 s  ClockTime = 59 s

Time = 5.2

Courant Number mean: 0.00058149603 max: 0.10232742
smoothSolver:  Solving for Ux, Initial residual = 0.0005546893, Final residual = 3.8897966e-08, No Iterations 1
smoothSolver:  Solving for Uy, Initial residual = 0.00093746802, Final residual = 7.2133771e-08, No Iterations 1
smoothSolver:  Solving for Uz, Initial residual = 0.00084362141, Final residual = 5.9837061e-08, No Iterations 1
DICPCG:  Solving for p, Initial residual = 0.0081144776, Final residual = 0.0003783092, No Iterations 2
DICPCG:  Solving for p, Initial residual = 0.001217578, Final residual = 5.8497996e-05, No Iterations 23
DICPCG:  Solving for p, Initial residual = 0.00043577821, Final residual = 2.1050201e-05, No Iterations 17
time step continuity errors : sum local = 7.5597507e-11, global = 3.1567061e-11, cumulative = -6.6532842e-08
DICPCG:  Solving for p, Initial residual = 0.0001877068, Final residual = 8.7122824e-06, No Iterations 140
DICPCG:  Solving for p, Initial residual = 0.00019616814, Final residual = 9.4529318e-06, No Iterations 4
DICPCG:  Solving for p, Initial residual = 4.9467082e-05, Final residual = 9.9821266e-07, No Iterations 38
time step continuity errors : sum local = 3.5825624e-12, global = -1.1423094e-13, cumulative = -6.6532956e-08
ExecutionTime = 58.41 s  ClockTime = 60 s

Time = 5.3

Courant Number mean: 0.00058149928 max: 0.10232259
smoothSolver:  Solving for Ux, Initial residual = 0.00054671642, Final residual = 3.8159625e-08, No Iterations 1
smoothSolver:  Solving for Uy, Initial residual = 0.00092368786, Final residual = 7.0697037e-08, No Iterations 1
smoothSolver:  Solving for Uz, Initial residual = 0.00083069999, Final residual = 5.8822875e-08, No Iterations 1
DICPCG:  Solving for p, Initial residual = 0.0079553474, Final residual = 0.00037959263, No Iterations 2
DICPCG:  Solving for p, Initial residual = 0.0011954243, Final residual = 5.8031043e-05, No Iterations 23
DICPCG:  Solving for p, Initial residual = 0.00043150173, Final residual = 2.0891606e-05, No Iterations 16
time step continuity errors : sum local = 7.4096109e-11, global = 3.0585566e-11, cumulative = -6.6502371e-08
DICPCG:  Solving for p, Initial residual = 0.00018561247, Final residual = 9.2577344e-06, No Iterations 139
DICPCG:  Solving for p, Initial residual = 0.0001929866, Final residual = 9.3361175e-06, No Iterations 4
DICPCG:  Solving for p, Initial residual = 4.8748961e-05, Final residual = 9.7557511e-07, No Iterations 49
time step continuity errors : sum local = 3.4579024e-12, global = -9.4615873e-14, cumulative = -6.6502465e-08
ExecutionTime = 59.36 s  ClockTime = 61 s

Time = 5.4

Courant Number mean: 0.00058150276 max: 0.10231516
smoothSolver:  Solving for Ux, Initial residual = 0.00053885532, Final residual = 3.748963e-08, No Iterations 1
smoothSolver:  Solving for Uy, Initial residual = 0.00091035599, Final residual = 6.9445712e-08, No Iterations 1
smoothSolver:  Solving for Uz, Initial residual = 0.00081837422, Final residual = 5.7674322e-08, No Iterations 1
DICPCG:  Solving for p, Initial residual = 0.0078974367, Final residual = 0.00037636992, No Iterations 2
DICPCG:  Solving for p, Initial residual = 0.0011834335, Final residual = 5.8744926e-05, No Iterations 24
DICPCG:  Solving for p, Initial residual = 0.00043760168, Final residual = 2.1325149e-05, No Iterations 17
time step continuity errors : sum local = 7.471809e-11, global = 3.3710998e-11, cumulative = -6.6468754e-08
DICPCG:  Solving for p, Initial residual = 0.00019038882, Final residual = 9.1628568e-06, No Iterations 139
DICPCG:  Solving for p, Initial residual = 0.00020914138, Final residual = 1.0226216e-05, No Iterations 4
DICPCG:  Solving for p, Initial residual = 5.3134444e-05, Final residual = 9.5683551e-07, No Iterations 48
time step continuity errors : sum local = 3.3502059e-12, global = -1.2608386e-13, cumulative = -6.646888e-08
ExecutionTime = 60.33 s  ClockTime = 62 s

Time = 5.5

Courant Number mean: 0.00058150664 max: 0.10230492
smoothSolver:  Solving for Ux, Initial residual = 0.0005310976, Final residual = 3.6825934e-08, No Iterations 1
smoothSolver:  Solving for Uy, Initial residual = 0.00089758592, Final residual = 6.8043699e-08, No Iterations 1
smoothSolver:  Solving for Uz, Initial residual = 0.00080650317, Final residual = 5.6783775e-08, No Iterations 1
DICPCG:  Solving for p, Initial residual = 0.0077507065, Final residual = 0.00037851087, No Iterations 2
DICPCG:  Solving for p, Initial residual = 0.0011552292, Final residual = 5.7069474e-05, No Iterations 24
DICPCG:  Solving for p, Initial residual = 0.00043218399, Final residual = 2.0822141e-05, No Iterations 122
time step continuity errors : sum local = 7.2082376e-11, global = 1.5750583e-13, cumulative = -6.6468723e-08
DICPCG:  Solving for p, Initial residual = 0.00029305632, Final residual = 1.4572747e-05, No Iterations 6
DICPCG:  Solving for p, Initial residual = 8.0092542e-05, Final residual = 3.7420558e-06, No Iterations 43
DICPCG:  Solving for p, Initial residual = 5.740717e-05, Final residual = 9.9024902e-07, No Iterations 49
time step continuity errors : sum local = 3.4255419e-12, global = -1.6981154e-13, cumulative = -6.6468893e-08
ExecutionTime = 61.52 s  ClockTime = 63 s

Time = 5.6

Courant Number mean: 0.00058151092 max: 0.102292
smoothSolver:  Solving for Ux, Initial residual = 0.00052362573, Final residual = 3.6190226e-08, No Iterations 1
smoothSolver:  Solving for Uy, Initial residual = 0.00088519302, Final residual = 6.6618756e-08, No Iterations 1
smoothSolver:  Solving for Uz, Initial residual = 0.00079502127, Final residual = 5.5842603e-08, No Iterations 1
DICPCG:  Solving for p, Initial residual = 0.0075482357, Final residual = 0.00037005278, No Iterations 2
DICPCG:  Solving for p, Initial residual = 0.0011272493, Final residual = 5.4184306e-05, No Iterations 25
DICPCG:  Solving for p, Initial residual = 0.00042784691, Final residual = 2.1014301e-05, No Iterations 123
time step continuity errors : sum local = 7.1898307e-11, global = 2.135871e-13, cumulative = -6.6468679e-08
DICPCG:  Solving for p, Initial residual = 0.00028316565, Final residual = 1.3805852e-05, No Iterations 8
DICPCG:  Solving for p, Initial residual = 7.8374456e-05, Final residual = 3.8460128e-06, No Iterations 42
DICPCG:  Solving for p, Initial residual = 5.5067352e-05, Final residual = 8.9961336e-07, No Iterations 49
time step continuity errors : sum local = 3.0758001e-12, global = -2.0570434e-13, cumulative = -6.6468885e-08
ExecutionTime = 62.55 s  ClockTime = 64 s

Time = 5.7

Courant Number mean: 0.00058151541 max: 0.10227621
smoothSolver:  Solving for Ux, Initial residual = 0.00051650127, Final residual = 3.5541011e-08, No Iterations 1
smoothSolver:  Solving for Uy, Initial residual = 0.0008735172, Final residual = 6.5411865e-08, No Iterations 1
smoothSolver:  Solving for Uz, Initial residual = 0.00078394792, Final residual = 5.4991246e-08, No Iterations 1
DICPCG:  Solving for p, Initial residual = 0.0074172222, Final residual = 0.00036933939, No Iterations 2
DICPCG:  Solving for p, Initial residual = 0.0011233032, Final residual = 5.5444758e-05, No Iterations 24
DICPCG:  Solving for p, Initial residual = 0.00043483093, Final residual = 2.077054e-05, No Iterations 16
time step continuity errors : sum local = 7.0252393e-11, global = 3.0129812e-11, cumulative = -6.6438755e-08
DICPCG:  Solving for p, Initial residual = 0.00018474783, Final residual = 9.0240443e-06, No Iterations 124
DICPCG:  Solving for p, Initial residual = 0.00019435645, Final residual = 9.2994091e-06, No Iterations 4
DICPCG:  Solving for p, Initial residual = 4.9452523e-05, Final residual = 9.5440684e-07, No Iterations 32
time step continuity errors : sum local = 3.2260626e-12, global = -1.2495878e-13, cumulative = -6.643888e-08
ExecutionTime = 63.41 s  ClockTime = 65 s

Time = 5.8

Courant Number mean: 0.00058152035 max: 0.10225799
smoothSolver:  Solving for Ux, Initial residual = 0.00050966274, Final residual = 3.4933029e-08, No Iterations 1
smoothSolver:  Solving for Uy, Initial residual = 0.00086205426, Final residual = 6.4155709e-08, No Iterations 1
smoothSolver:  Solving for Uz, Initial residual = 0.00077302573, Final residual = 5.4062436e-08, No Iterations 1
DICPCG:  Solving for p, Initial residual = 0.007326678, Final residual = 0.00034881586, No Iterations 3
DICPCG:  Solving for p, Initial residual = 0.001155532, Final residual = 5.2736161e-05, No Iterations 23
DICPCG:  Solving for p, Initial residual = 0.00041557243, Final residual = 2.0314917e-05, No Iterations 16
time step continuity errors : sum local = 6.7952716e-11, global = 3.1323207e-11, cumulative = -6.6407557e-08
DICPCG:  Solving for p, Initial residual = 0.00017996662, Final residual = 8.666516e-06, No Iterations 126
DICPCG:  Solving for p, Initial residual = 0.00019938515, Final residual = 9.9123662e-06, No Iterations 4
DICPCG:  Solving for p, Initial residual = 5.0699417e-05, Final residual = 9.9408067e-07, No Iterations 45
time step continuity errors : sum local = 3.3229915e-12, global = -1.5145141e-13, cumulative = -6.6407708e-08
ExecutionTime = 64.32 s  ClockTime = 66 s

Time = 5.9

Courant Number mean: 0.00058152561 max: 0.10223825
smoothSolver:  Solving for Ux, Initial residual = 0.00050294874, Final residual = 3.4247565e-08, No Iterations 1
smoothSolver:  Solving for Uy, Initial residual = 0.00085097455, Final residual = 6.2846685e-08, No Iterations 1
smoothSolver:  Solving for Uz, Initial residual = 0.00076241564, Final residual = 5.3232145e-08, No Iterations 1
DICPCG:  Solving for p, Initial residual = 0.007332649, Final residual = 0.00036490906, No Iterations 2
DICPCG:  Solving for p, Initial residual = 0.0011067942, Final residual = 5.4484301e-05, No Iterations 23
DICPCG:  Solving for p, Initial residual = 0.00043241911, Final residual = 2.0231336e-05, No Iterations 16
time step continuity errors : sum local = 6.6935335e-11, global = 2.9688498e-11, cumulative = -6.637802e-08
DICPCG:  Solving for p, Initial residual = 0.00018190177, Final residual = 8.7487146e-06, No Iterations 129
DICPCG:  Solving for p, Initial residual = 0.00019231935, Final residual = 9.2600713e-06, No Iterations 4
DICPCG:  Solving for p, Initial residual = 4.8233034e-05, Final residual = 9.9057518e-07, No Iterations 50
time step continuity errors : sum local = 3.2752839e-12, global = -7.6910608e-14, cumulative = -6.6378097e-08
ExecutionTime = 65.24 s  ClockTime = 67 s

Time = 6

Courant Number mean: 0.00058153133 max: 0.10221803
smoothSolver:  Solving for Ux, Initial residual = 0.00049643098, Final residual = 3.3605312e-08, No Iterations 1
smoothSolver:  Solving for Uy, Initial residual = 0.00084006279, Final residual = 6.1477371e-08, No Iterations 1
smoothSolver:  Solving for Uz, Initial residual = 0.00075221761, Final residual = 5.2332429e-08, No Iterations 1
DICPCG:  Solving for p, Initial residual = 0.0071439808, Final residual = 0.0003382044, No Iterations 3
DICPCG:  Solving for p, Initial residual = 0.001128382, Final residual = 5.2115344e-05, No Iterations 23
DICPCG:  Solving for p, Initial residual = 0.00041010554, Final residual = 1.8315071e-05, No Iterations 16
time step continuity errors : sum local = 5.9953012e-11, global = 2.7819123e-11, cumulative = -6.6350277e-08
DICPCG:  Solving for p, Initial residual = 0.00017433102, Final residual = 8.1767415e-06, No Iterations 124
DICPCG:  Solving for p, Initial residual = 0.00018523345, Final residual = 7.1944888e-06, No Iterations 5
DICPCG:  Solving for p, Initial residual = 4.7409006e-05, Final residual = 9.9746811e-07, No Iterations 32
time step continuity errors : sum local = 3.2632067e-12, global = -1.5569738e-13, cumulative = -6.6350433e-08
ExecutionTime = 66.36 s  ClockTime = 68 s

Time = 6.1

Courant Number mean: 0.0005815374 max: 0.10219785
smoothSolver:  Solving for Ux, Initial residual = 0.0004902484, Final residual = 3.2955446e-08, No Iterations 1
smoothSolver:  Solving for Uy, Initial residual = 0.00082950827, Final residual = 6.0120329e-08, No Iterations 1
smoothSolver:  Solving for Uz, Initial residual = 0.00074240058, Final residual = 5.1534494e-08, No Iterations 1
DICPCG:  Solving for p, Initial residual = 0.0070251295, Final residual = 0.00033995969, No Iterations 3
DICPCG:  Solving for p, Initial residual = 0.001122342, Final residual = 5.2732309e-05, No Iterations 23
DICPCG:  Solving for p, Initial residual = 0.00040638331, Final residual = 1.9840134e-05, No Iterations 15
time step continuity errors : sum local = 6.4269668e-11, global = 2.5988911e-11, cumulative = -6.6324444e-08
DICPCG:  Solving for p, Initial residual = 0.00017142182, Final residual = 8.266739e-06, No Iterations 125
[...]
DICPCG:  Solving for p, Initial residual = 2.4331188e-05, Final residual = 1.1924778e-06, No Iterations 143
DICPCG:  Solving for p, Initial residual = 2.8201066e-05, Final residual = 8.3998104e-07, No Iterations 6
time step continuity errors : sum local = 1.6816103e-12, global = -2.6721078e-14, cumulative = -6.5538004e-08
ExecutionTime = 182.59 s  ClockTime = 185 s

Time = 18.6

Courant Number mean: 0.00058363386 max: 0.10161863
smoothSolver:  Solving for Ux, Initial residual = 0.00025623183, Final residual = 8.2232334e-09, No Iterations 1
smoothSolver:  Solving for Uy, Initial residual = 0.00041456965, Final residual = 1.3595148e-08, No Iterations 1
smoothSolver:  Solving for Uz, Initial residual = 0.00037880666, Final residual = 1.3952207e-08, No Iterations 1
DICPCG:  Solving for p, Initial residual = 0.0023607083, Final residual = 0.00010182943, No Iterations 2
DICPCG:  Solving for p, Initial residual = 0.00040733402, Final residual = 1.9804771e-05, No Iterations 19
DICPCG:  Solving for p, Initial residual = 0.00016786903, Final residual = 7.9811756e-06, No Iterations 9
time step continuity errors : sum local = 1.5943608e-11, global = 1.8968139e-12, cumulative = -6.5536107e-08
DICPCG:  Solving for p, Initial residual = 6.0646927e-05, Final residual = 2.934582e-06, No Iterations 19
DICPCG:  Solving for p, Initial residual = 2.7782775e-05, Final residual = 1.3344141e-06, No Iterations 133
DICPCG:  Solving for p, Initial residual = 3.093946e-05, Final residual = 9.5973996e-07, No Iterations 6
time step continuity errors : sum local = 1.9170737e-12, global = -4.4503658e-14, cumulative = -6.5536151e-08
ExecutionTime = 183.5 s  ClockTime = 186 s

Time = 18.7

Courant Number mean: 0.00058365851 max: 0.10159671
smoothSolver:  Solving for Ux, Initial residual = 0.00025543983, Final residual = 8.1716454e-09, No Iterations 1
smoothSolver:  Solving for Uy, Initial residual = 0.00041291593, Final residual = 1.3520541e-08, No Iterations 1
smoothSolver:  Solving for Uz, Initial residual = 0.00037742573, Final residual = 1.3875506e-08, No Iterations 1
DICPCG:  Solving for p, Initial residual = 0.002422594, Final residual = 6.1996969e-05, No Iterations 3
DICPCG:  Solving for p, Initial residual = 0.00044694311, Final residual = 2.231196e-05, No Iterations 12
DICPCG:  Solving for p, Initial residual = 0.00017400498, Final residual = 8.4314227e-06, No Iterations 9
time step continuity errors : sum local = 1.6802906e-11, global = 2.0771104e-12, cumulative = -6.5534074e-08
DICPCG:  Solving for p, Initial residual = 6.6675839e-05, Final residual = 3.2158433e-06, No Iterations 18
DICPCG:  Solving for p, Initial residual = 3.0075506e-05, Final residual = 1.4652446e-06, No Iterations 118
DICPCG:  Solving for p, Initial residual = 3.2499878e-05, Final residual = 9.4065275e-07, No Iterations 9
time step continuity errors : sum local = 1.8744505e-12, global = -9.9224149e-14, cumulative = -6.5534174e-08
ExecutionTime = 184.27 s  ClockTime = 187 s

Time = 18.8

Courant Number mean: 0.0005836835 max: 0.10157476
smoothSolver:  Solving for Ux, Initial residual = 0.0002546109, Final residual = 8.1169346e-09, No Iterations 1
smoothSolver:  Solving for Uy, Initial residual = 0.00041111, Final residual = 1.3426345e-08, No Iterations 1
smoothSolver:  Solving for Uz, Initial residual = 0.00037614797, Final residual = 1.3807232e-08, No Iterations 1
DICPCG:  Solving for p, Initial residual = 0.0023498472, Final residual = 7.1555253e-05, No Iterations 3
DICPCG:  Solving for p, Initial residual = 0.00045280886, Final residual = 2.1005063e-05, No Iterations 18
DICPCG:  Solving for p, Initial residual = 0.00018048239, Final residual = 8.0295247e-06, No Iterations 9
time step continuity errors : sum local = 1.5964244e-11, global = 1.3476889e-12, cumulative = -6.5532826e-08
DICPCG:  Solving for p, Initial residual = 6.9954752e-05, Final residual = 3.3562621e-06, No Iterations 14
DICPCG:  Solving for p, Initial residual = 2.9050289e-05, Final residual = 1.4359753e-06, No Iterations 131
DICPCG:  Solving for p, Initial residual = 2.6363731e-05, Final residual = 8.9827543e-07, No Iterations 6
time step continuity errors : sum local = 1.7858129e-12, global = -1.7130154e-14, cumulative = -6.5532843e-08
ExecutionTime = 185.07 s  ClockTime = 188 s

Time = 18.9

Courant Number mean: 0.00058370873 max: 0.10155284
smoothSolver:  Solving for Ux, Initial residual = 0.00025374134, Final residual = 8.0736122e-09, No Iterations 1
smoothSolver:  Solving for Uy, Initial residual = 0.00040909888, Final residual = 1.3366315e-08, No Iterations 1
smoothSolver:  Solving for Uz, Initial residual = 0.00037465309, Final residual = 1.3716156e-08, No Iterations 1
DICPCG:  Solving for p, Initial residual = 0.0023993006, Final residual = 7.0844895e-05, No Iterations 3
DICPCG:  Solving for p, Initial residual = 0.00046485732, Final residual = 2.1848723e-05, No Iterations 14
DICPCG:  Solving for p, Initial residual = 0.00017544415, Final residual = 8.6962936e-06, No Iterations 7
time step continuity errors : sum local = 1.7250505e-11, global = 5.9178512e-13, cumulative = -6.5532251e-08
DICPCG:  Solving for p, Initial residual = 6.2071159e-05, Final residual = 2.8667131e-06, No Iterations 17
DICPCG:  Solving for p, Initial residual = 2.9594911e-05, Final residual = 1.421498e-06, No Iterations 16
DICPCG:  Solving for p, Initial residual = 1.1656197e-05, Final residual = 9.5102465e-07, No Iterations 118
time step continuity errors : sum local = 1.8864734e-12, global = 1.0728997e-14, cumulative = -6.553224e-08
ExecutionTime = 185.85 s  ClockTime = 188 s

Time = 19

Courant Number mean: 0.00058373399 max: 0.10153099
smoothSolver:  Solving for Ux, Initial residual = 0.00025292881, Final residual = 8.0146839e-09, No Iterations 1
smoothSolver:  Solving for Uy, Initial residual = 0.00040728291, Final residual = 1.3281106e-08, No Iterations 1
smoothSolver:  Solving for Uz, Initial residual = 0.00037320961, Final residual = 1.3654743e-08, No Iterations 1
DICPCG:  Solving for p, Initial residual = 0.0022695395, Final residual = 0.00010609111, No Iterations 2
DICPCG:  Solving for p, Initial residual = 0.00041831874, Final residual = 1.9449391e-05, No Iterations 14
DICPCG:  Solving for p, Initial residual = 0.00015484051, Final residual = 7.2900382e-06, No Iterations 7
time step continuity errors : sum local = 1.4430324e-11, global = 7.6499141e-13, cumulative = -6.5531475e-08
DICPCG:  Solving for p, Initial residual = 5.30068e-05, Final residual = 2.5326852e-06, No Iterations 25
DICPCG:  Solving for p, Initial residual = 2.5196797e-05, Final residual = 1.2108025e-06, No Iterations 141
DICPCG:  Solving for p, Initial residual = 2.0563957e-05, Final residual = 8.7874581e-07, No Iterations 5
time step continuity errors : sum local = 1.7393637e-12, global = -4.8296474e-15, cumulative = -6.553148e-08
ExecutionTime = 186.92 s  ClockTime = 189 s

Time = 19.1

Courant Number mean: 0.00058375914 max: 0.10150921
smoothSolver:  Solving for Ux, Initial residual = 0.00025217869, Final residual = 7.9465143e-09, No Iterations 1
smoothSolver:  Solving for Uy, Initial residual = 0.00040567996, Final residual = 1.3175797e-08, No Iterations 1
smoothSolver:  Solving for Uz, Initial residual = 0.00037196725, Final residual = 1.3580848e-08, No Iterations 1
DICPCG:  Solving for p, Initial residual = 0.0021695363, Final residual = 9.4928884e-05, No Iterations 2
DICPCG:  Solving for p, Initial residual = 0.00038411054, Final residual = 1.8458838e-05, No Iterations 14
DICPCG:  Solving for p, Initial residual = 0.00014086414, Final residual = 6.9059696e-06, No Iterations 7
time step continuity errors : sum local = 1.3642427e-11, global = 1.0312751e-12, cumulative = -6.5530449e-08
DICPCG:  Solving for p, Initial residual = 4.8198151e-05, Final residual = 2.2899229e-06, No Iterations 25
DICPCG:  Solving for p, Initial residual = 2.3180363e-05, Final residual = 1.0671618e-06, No Iterations 139
DICPCG:  Solving for p, Initial residual = 2.1172846e-05, Final residual = 8.6923562e-07, No Iterations 5
time step continuity errors : sum local = 1.7170585e-12, global = -1.4041278e-14, cumulative = -6.5530463e-08
ExecutionTime = 187.75 s  ClockTime = 190 s

Time = 19.2

Courant Number mean: 0.00058378419 max: 0.10148752
smoothSolver:  Solving for Ux, Initial residual = 0.00025144656, Final residual = 7.876076e-09, No Iterations 1
smoothSolver:  Solving for Uy, Initial residual = 0.00040419867, Final residual = 1.3080281e-08, No Iterations 1
smoothSolver:  Solving for Uz, Initial residual = 0.00037081028, Final residual = 1.3502133e-08, No Iterations 1
DICPCG:  Solving for p, Initial residual = 0.0021364249, Final residual = 9.1335185e-05, No Iterations 2
DICPCG:  Solving for p, Initial residual = 0.00037551119, Final residual = 1.8124769e-05, No Iterations 14
DICPCG:  Solving for p, Initial residual = 0.00013663735, Final residual = 6.8073668e-06, No Iterations 10
time step continuity errors : sum local = 1.3420746e-11, global = 1.5351853e-12, cumulative = -6.5528928e-08
DICPCG:  Solving for p, Initial residual = 5.0787117e-05, Final residual = 2.4917718e-06, No Iterations 22
DICPCG:  Solving for p, Initial residual = 2.1969769e-05, Final residual = 1.0435215e-06, No Iterations 139
DICPCG:  Solving for p, Initial residual = 2.6070769e-05, Final residual = 9.8986485e-07, No Iterations 5
time step continuity errors : sum local = 1.9514006e-12, global = -2.1522204e-14, cumulative = -6.5528949e-08
ExecutionTime = 188.57 s  ClockTime = 191 s

Time = 19.3

Courant Number mean: 0.0005838091 max: 0.10146592
smoothSolver:  Solving for Ux, Initial residual = 0.00025071652, Final residual = 7.8193963e-09, No Iterations 1
smoothSolver:  Solving for Uy, Initial residual = 0.00040272679, Final residual = 1.2993983e-08, No Iterations 1
smoothSolver:  Solving for Uz, Initial residual = 0.00036965388, Final residual = 1.3424299e-08, No Iterations 1
DICPCG:  Solving for p, Initial residual = 0.002127995, Final residual = 9.0849231e-05, No Iterations 2
DICPCG:  Solving for p, Initial residual = 0.00037224872, Final residual = 1.8044216e-05, No Iterations 14
DICPCG:  Solving for p, Initial residual = 0.00013975622, Final residual = 6.6644007e-06, No Iterations 10
time step continuity errors : sum local = 1.311289e-11, global = 1.4874181e-12, cumulative = -6.5527462e-08
DICPCG:  Solving for p, Initial residual = 5.1389731e-05, Final residual = 2.5140369e-06, No Iterations 22
DICPCG:  Solving for p, Initial residual = 2.1699994e-05, Final residual = 1.0405722e-06, No Iterations 138
DICPCG:  Solving for p, Initial residual = 2.5367954e-05, Final residual = 9.9871477e-07, No Iterations 5
time step continuity errors : sum local = 1.9649523e-12, global = -2.2055882e-14, cumulative = -6.5527484e-08
ExecutionTime = 189.41 s  ClockTime = 192 s

Time = 19.4

Courant Number mean: 0.00058383396 max: 0.10144443
smoothSolver:  Solving for Ux, Initial residual = 0.0002499718, Final residual = 7.7660969e-09, No Iterations 1
smoothSolver:  Solving for Uy, Initial residual = 0.00040121814, Final residual = 1.2922462e-08, No Iterations 1
smoothSolver:  Solving for Uz, Initial residual = 0.00036854684, Final residual = 1.3357139e-08, No Iterations 1
DICPCG:  Solving for p, Initial residual = 0.0020618658, Final residual = 8.2828853e-05, No Iterations 2
DICPCG:  Solving for p, Initial residual = 0.00034854443, Final residual = 1.6579397e-05, No Iterations 14
DICPCG:  Solving for p, Initial residual = 0.00012771714, Final residual = 5.8925046e-06, No Iterations 11
time step continuity errors : sum local = 1.1572549e-11, global = 1.2947609e-12, cumulative = -6.5526189e-08
DICPCG:  Solving for p, Initial residual = 4.699547e-05, Final residual = 2.1498007e-06, No Iterations 22
DICPCG:  Solving for p, Initial residual = 1.9670913e-05, Final residual = 9.9935256e-07, No Iterations 137
DICPCG:  Solving for p, Initial residual = 2.1586292e-05, Final residual = 8.9521026e-07, No Iterations 5
time step continuity errors : sum local = 1.7580567e-12, global = -1.1954888e-14, cumulative = -6.5526201e-08
ExecutionTime = 190.23 s  ClockTime = 193 s

Time = 19.5

Courant Number mean: 0.0005838587 max: 0.10142305
smoothSolver:  Solving for Ux, Initial residual = 0.00024928907, Final residual = 7.7127669e-09, No Iterations 1
smoothSolver:  Solving for Uy, Initial residual = 0.00039976278, Final residual = 1.2852108e-08, No Iterations 1
smoothSolver:  Solving for Uz, Initial residual = 0.00036750227, Final residual = 1.3279806e-08, No Iterations 1
DICPCG:  Solving for p, Initial residual = 0.0020387122, Final residual = 7.8136961e-05, No Iterations 2
DICPCG:  Solving for p, Initial residual = 0.00033510553, Final residual = 1.5872909e-05, No Iterations 14
DICPCG:  Solving for p, Initial residual = 0.00012458673, Final residual = 6.0603813e-06, No Iterations 10
time step continuity errors : sum local = 1.1881511e-11, global = 1.1513586e-12, cumulative = -6.552505e-08
DICPCG:  Solving for p, Initial residual = 4.5635182e-05, Final residual = 2.168945e-06, No Iterations 21
DICPCG:  Solving for p, Initial residual = 1.9475197e-05, Final residual = 9.6591409e-07, No Iterations 138
DICPCG:  Solving for p, Initial residual = 2.0331511e-05, Final residual = 8.7053819e-07, No Iterations 5
time step continuity errors : sum local = 1.7066353e-12, global = -9.8818623e-15, cumulative = -6.552506e-08
ExecutionTime = 191.28 s  ClockTime = 194 s

Time = 19.6

Courant Number mean: 0.00058388329 max: 0.10140172
smoothSolver:  Solving for Ux, Initial residual = 0.0002486643, Final residual = 7.6619563e-09, No Iterations 1
smoothSolver:  Solving for Uy, Initial residual = 0.00039835978, Final residual = 1.2761242e-08, No Iterations 1
smoothSolver:  Solving for Uz, Initial residual = 0.00036652641, Final residual = 1.3201315e-08, No Iterations 1
DICPCG:  Solving for p, Initial residual = 0.0020970296, Final residual = 8.98185e-05, No Iterations 2
DICPCG:  Solving for p, Initial residual = 0.00036486765, Final residual = 1.800464e-05, No Iterations 15
DICPCG:  Solving for p, Initial residual = 0.00014281959, Final residual = 6.2606514e-06, No Iterations 10
time step continuity errors : sum local = 1.2251779e-11, global = 1.3561777e-12, cumulative = -6.5523704e-08
DICPCG:  Solving for p, Initial residual = 5.0911644e-05, Final residual = 2.5008067e-06, No Iterations 22
DICPCG:  Solving for p, Initial residual = 2.118581e-05, Final residual = 1.0208538e-06, No Iterations 137
DICPCG:  Solving for p, Initial residual = 2.3269058e-05, Final residual = 9.2414376e-07, No Iterations 5
time step continuity errors : sum local = 1.8084151e-12, global = -1.8500951e-14, cumulative = -6.5523722e-08
ExecutionTime = 192.15 s  ClockTime = 195 s

Time = 19.7

Courant Number mean: 0.00058390778 max: 0.10138043
smoothSolver:  Solving for Ux, Initial residual = 0.00024801025, Final residual = 7.6130789e-09, No Iterations 1
smoothSolver:  Solving for Uy, Initial residual = 0.00039706633, Final residual = 1.267056e-08, No Iterations 1
smoothSolver:  Solving for Uz, Initial residual = 0.00036551328, Final residual = 1.3111432e-08, No Iterations 1
DICPCG:  Solving for p, Initial residual = 0.0020719404, Final residual = 8.2878965e-05, No Iterations 2
DICPCG:  Solving for p, Initial residual = 0.00035003955, Final residual = 1.6637671e-05, No Iterations 13
DICPCG:  Solving for p, Initial residual = 0.00012776391, Final residual = 6.3227163e-06, No Iterations 10
time step continuity errors : sum local = 1.2350391e-11, global = 1.2608101e-12, cumulative = -6.5522461e-08
DICPCG:  Solving for p, Initial residual = 4.6774778e-05, Final residual = 2.2985987e-06, No Iterations 21
DICPCG:  Solving for p, Initial residual = 2.0431796e-05, Final residual = 9.8592614e-07, No Iterations 137
DICPCG:  Solving for p, Initial residual = 2.1028049e-05, Final residual = 9.3198684e-07, No Iterations 5
time step continuity errors : sum local = 1.8203833e-12, global = -1.4168339e-14, cumulative = -6.5522475e-08
ExecutionTime = 193 s  ClockTime = 195 s

Time = 19.8

Courant Number mean: 0.0005839324 max: 0.10135928
smoothSolver:  Solving for Ux, Initial residual = 0.00024737641, Final residual = 7.5830874e-09, No Iterations 1
smoothSolver:  Solving for Uy, Initial residual = 0.00039565768, Final residual = 1.2579179e-08, No Iterations 1
smoothSolver:  Solving for Uz, Initial residual = 0.00036448691, Final residual = 1.3029764e-08, No Iterations 1
DICPCG:  Solving for p, Initial residual = 0.0020277575, Final residual = 7.7973613e-05, No Iterations 2
DICPCG:  Solving for p, Initial residual = 0.00033557337, Final residual = 1.5944517e-05, No Iterations 13
DICPCG:  Solving for p, Initial residual = 0.00012510435, Final residual = 6.2081143e-06, No Iterations 10
time step continuity errors : sum local = 1.2105232e-11, global = 9.4128549e-13, cumulative = -6.5521534e-08
DICPCG:  Solving for p, Initial residual = 4.541508e-05, Final residual = 2.209926e-06, No Iterations 21
DICPCG:  Solving for p, Initial residual = 2.063111e-05, Final residual = 9.2370537e-07, No Iterations 136
DICPCG:  Solving for p, Initial residual = 1.8760135e-05, Final residual = 9.6087613e-07, No Iterations 4
time step continuity errors : sum local = 1.8735373e-12, global = -5.3023635e-15, cumulative = -6.5521539e-08
ExecutionTime = 193.87 s  ClockTime = 196 s

Time = 19.9

Courant Number mean: 0.000583957 max: 0.1013383
smoothSolver:  Solving for Ux, Initial residual = 0.00024676898, Final residual = 7.5424652e-09, No Iterations 1
smoothSolver:  Solving for Uy, Initial residual = 0.00039428951, Final residual = 1.2481135e-08, No Iterations 1
smoothSolver:  Solving for Uz, Initial residual = 0.00036350564, Final residual = 1.2937286e-08, No Iterations 1
DICPCG:  Solving for p, Initial residual = 0.0020098647, Final residual = 7.8685415e-05, No Iterations 2
DICPCG:  Solving for p, Initial residual = 0.00033099675, Final residual = 1.5231085e-05, No Iterations 14
DICPCG:  Solving for p, Initial residual = 0.00012600572, Final residual = 5.6626936e-06, No Iterations 10
time step continuity errors : sum local = 1.1022517e-11, global = 1.2090586e-12, cumulative = -6.552033e-08
DICPCG:  Solving for p, Initial residual = 4.4441998e-05, Final residual = 2.162979e-06, No Iterations 22
DICPCG:  Solving for p, Initial residual = 1.9698641e-05, Final residual = 9.0751787e-07, No Iterations 135
DICPCG:  Solving for p, Initial residual = 2.0855944e-05, Final residual = 8.9082971e-07, No Iterations 5
time step continuity errors : sum local = 1.7339364e-12, global = -1.5224137e-14, cumulative = -6.5520346e-08
ExecutionTime = 194.71 s  ClockTime = 197 s

Time = 20

Courant Number mean: 0.00058398151 max: 0.1013175
smoothSolver:  Solving for Ux, Initial residual = 0.00024616709, Final residual = 7.5003458e-09, No Iterations 1
smoothSolver:  Solving for Uy, Initial residual = 0.00039300215, Final residual = 1.2394752e-08, No Iterations 1
smoothSolver:  Solving for Uz, Initial residual = 0.00036257995, Final residual = 1.2859383e-08, No Iterations 1
DICPCG:  Solving for p, Initial residual = 0.0020329584, Final residual = 8.9000664e-05, No Iterations 2
DICPCG:  Solving for p, Initial residual = 0.00034465444, Final residual = 1.7029684e-05, No Iterations 15
DICPCG:  Solving for p, Initial residual = 0.00013694984, Final residual = 5.9249504e-06, No Iterations 10
time step continuity errors : sum local = 1.151275e-11, global = 8.1033759e-13, cumulative = -6.5519535e-08
DICPCG:  Solving for p, Initial residual = 4.7857814e-05, Final residual = 2.3757097e-06, No Iterations 57
DICPCG:  Solving for p, Initial residual = 2.8746437e-05, Final residual = 1.4322561e-06, No Iterations 9
DICPCG:  Solving for p, Initial residual = 9.2275791e-06, Final residual = 9.3415784e-07, No Iterations 5
time step continuity errors : sum local = 1.8151346e-12, global = 7.6547509e-13, cumulative = -6.551877e-08
ExecutionTime = 195.48 s  ClockTime = 198 s

End

Finalising parallel run
