/*---------------------------------------------------------------------------*\
  =========                 |
  \\      /  F ield         | OpenFOAM: The Open Source CFD Toolbox
   \\    /   O peration     | Website:  https://openfoam.org
    \\  /    A nd           | Version:  8
     \\/     M anipulation  |
\*---------------------------------------------------------------------------*/
Build  : 8-1c9b5879390b
Exec   : checkMesh
Date   : Nov 14 2021
Time   : 12:33:39
Host   : "pop-os"
PID    : 15568
I/O    : uncollated
Case   : /home/naimishbalaji/Desktop/Mini_Project/CFD-For-Ventilation-Analysis/simulations/icofoam_cases/3_branch_pair_1_outlet_shifted/case
nProcs : 1
sigFpe : Enabling floating point exception trapping (FOAM_SIGFPE).
fileModificationChecking : Monitoring run-time modified files using timeStampMaster (fileModificationSkew 10)
allowSystemOperations : Allowing user-supplied system call operations

// * * * * * * * * * * * * * * * * * * * * * * * * * * * * * * * * * * * * * //
Create time

Create polyMesh for time = 0

Time = 0

Mesh stats
    points:           116477
    faces:            303993
    internal faces:   282567
    cells:            97760
    faces per cell:   6
    boundary patches: 5
    point zones:      0
    face zones:       0
    cell zones:       1

Overall number of cells of each type:
    hexahedra:     97760
    prisms:        0
    wedges:        0
    pyramids:      0
    tet wedges:    0
    tetrahedra:    0
    polyhedra:     0

Checking topology...
    Boundary definition OK.
    Cell to face addressing OK.
    Point usage OK.
    Upper triangular ordering OK.
    Face vertices OK.
    Number of regions: 1 (OK).

Checking patch topology for multiply connected surfaces...
    Patch               Faces    Points   Surface topology                  
    wall                17556    17846    ok (non-closed singly connected)  
    surface             3702     3997     ok (non-closed singly connected)  
    inlet               96       124      ok (non-closed singly connected)  
    outlet              48       62       ok (non-closed singly connected)  
    main_inlet          24       31       ok (non-closed singly connected)  

Checking geometry...
    Overall domain bounding box (0 0 0) (19185.88 12192 3962.4)
    Mesh has 3 geometric (non-empty/wedge) directions (1 1 1)
    Mesh has 3 solution (non-empty) directions (1 1 1)
    Boundary openness (-5.4355067e-17 -1.102795e-18 8.0026862e-17) OK.
    Max cell openness = 2.5194941e-16 OK.
    Max aspect ratio = 8.4297285 OK.
    Minimum face area = 2021.004. Maximum face area = 142298.51.  Face area magnitudes OK.
    Min volume = 412215.58. Max volume = 21859490.  Total volume = 6.4810216e+11.  Cell volumes OK.
    Mesh non-orthogonality Max: 76.059336 average: 26.660087
   *Number of severely non-orthogonal (> 70 degrees) faces: 783.
    Non-orthogonality check OK.
  <<Writing 783 non-orthogonal faces to set nonOrthoFaces
    Face pyramids OK.
    Max skewness = 1.1079291 OK.
    Coupled point location match (average 0) OK.

Mesh OK.

End

