/*---------------------------------------------------------------------------*\
  =========                 |
  \\      /  F ield         | OpenFOAM: The Open Source CFD Toolbox
   \\    /   O peration     | Website:  https://openfoam.org
    \\  /    A nd           | Version:  8
     \\/     M anipulation  |
\*---------------------------------------------------------------------------*/
Build  : 8-1c9b5879390b
Exec   : icoFoam -parallel
Date   : Nov 25 2021
Time   : 14:36:59
Host   : "pop-os"
PID    : 16771
I/O    : uncollated
Case   : /home/naimishbalaji/Desktop/Mini_Project/CFD-For-Ventilation-Analysis/simulations/icofoam_cases/3_branch_pair_1_outlet_shifted/case
nProcs : 2
Slaves : 1("pop-os.16772")
Pstream initialized with:
    floatTransfer      : 0
    nProcsSimpleSum    : 0
    commsType          : nonBlocking
    polling iterations : 0
sigFpe : Enabling floating point exception trapping (FOAM_SIGFPE).
fileModificationChecking : Monitoring run-time modified files using timeStampMaster (fileModificationSkew 10)
allowSystemOperations : Allowing user-supplied system call operations

// * * * * * * * * * * * * * * * * * * * * * * * * * * * * * * * * * * * * * //
Create time

Create mesh for time = 0

Reading transportProperties

Reading field p

Reading field U

Reading/calculating face flux field phi


Starting time loop

Time = 0.1

Courant Number mean: 2.9242643e-06 max: 0.014873155
smoothSolver:  Solving for Ux, Initial residual = 1, Final residual = 1.0760313e-16, No Iterations 1
smoothSolver:  Solving for Uy, Initial residual = 0, Final residual = 0, No Iterations 0
smoothSolver:  Solving for Uz, Initial residual = 1, Final residual = 8.8851473e-17, No Iterations 1
DICPCG:  Solving for p, Initial residual = 1, Final residual = 0.049204328, No Iterations 193
DICPCG:  Solving for p, Initial residual = 0.37840039, Final residual = 0.018155023, No Iterations 4
DICPCG:  Solving for p, Initial residual = 0.063357527, Final residual = 0.0029375083, No Iterations 6
time step continuity errors : sum local = 2.0920228e-06, global = -2.2870563e-08, cumulative = -2.2870563e-08
DICPCG:  Solving for p, Initial residual = 0.015622061, Final residual = 0.00075682798, No Iterations 15
DICPCG:  Solving for p, Initial residual = 0.0063038293, Final residual = 0.00027610012, No Iterations 28
DICPCG:  Solving for p, Initial residual = 0.0029330103, Final residual = 9.3740253e-07, No Iterations 198
time step continuity errors : sum local = 6.7303994e-10, global = 1.0272551e-12, cumulative = -2.2869536e-08
ExecutionTime = 1.71 s  ClockTime = 3 s

Time = 0.2

Courant Number mean: 0.00070294097 max: 0.16387136
smoothSolver:  Solving for Ux, Initial residual = 0.33241597, Final residual = 1.6548702e-08, No Iterations 2
smoothSolver:  Solving for Uy, Initial residual = 0.33285472, Final residual = 1.3695112e-08, No Iterations 2
smoothSolver:  Solving for Uz, Initial residual = 0.31563312, Final residual = 5.2234841e-08, No Iterations 2
DICPCG:  Solving for p, Initial residual = 0.086350024, Final residual = 0.0042909698, No Iterations 153
DICPCG:  Solving for p, Initial residual = 0.60675686, Final residual = 0.030141065, No Iterations 4
DICPCG:  Solving for p, Initial residual = 0.28929394, Final residual = 0.013422578, No Iterations 9
time step continuity errors : sum local = 2.1467089e-06, global = -5.1796649e-08, cumulative = -7.4666185e-08
DICPCG:  Solving for p, Initial residual = 0.099707742, Final residual = 0.0046335578, No Iterations 160
DICPCG:  Solving for p, Initial residual = 0.086365118, Final residual = 0.0037738966, No Iterations 6
DICPCG:  Solving for p, Initial residual = 0.0232531, Final residual = 9.4536506e-07, No Iterations 233
time step continuity errors : sum local = 1.1093766e-10, global = -1.1579951e-13, cumulative = -7.46663e-08
ExecutionTime = 3.41 s  ClockTime = 4 s

Time = 0.3

Courant Number mean: 0.0007114599 max: 0.16537893
smoothSolver:  Solving for Ux, Initial residual = 0.02307964, Final residual = 1.920862e-06, No Iterations 1
smoothSolver:  Solving for Uy, Initial residual = 0.036172829, Final residual = 3.1386102e-06, No Iterations 1
smoothSolver:  Solving for Uz, Initial residual = 0.030722334, Final residual = 3.3531444e-06, No Iterations 1
DICPCG:  Solving for p, Initial residual = 0.43266871, Final residual = 0.01909937, No Iterations 4
DICPCG:  Solving for p, Initial residual = 0.20412181, Final residual = 0.0099829317, No Iterations 6
DICPCG:  Solving for p, Initial residual = 0.061429936, Final residual = 0.0028956069, No Iterations 11
time step continuity errors : sum local = 1.4451913e-07, global = -1.1230203e-08, cumulative = -8.5896503e-08
DICPCG:  Solving for p, Initial residual = 0.023626569, Final residual = 0.0011707947, No Iterations 30
DICPCG:  Solving for p, Initial residual = 0.011406406, Final residual = 0.00055922263, No Iterations 138
DICPCG:  Solving for p, Initial residual = 0.0062183756, Final residual = 9.4463432e-07, No Iterations 216
time step continuity errors : sum local = 4.6518777e-11, global = -1.2807558e-13, cumulative = -8.5896631e-08
ExecutionTime = 4.88 s  ClockTime = 6 s

Time = 0.4

Courant Number mean: 0.0007117824 max: 0.1661932
smoothSolver:  Solving for Ux, Initial residual = 0.0081039783, Final residual = 1.0042961e-06, No Iterations 1
smoothSolver:  Solving for Uy, Initial residual = 0.012339363, Final residual = 1.4350471e-06, No Iterations 1
smoothSolver:  Solving for Uz, Initial residual = 0.011010438, Final residual = 1.666113e-06, No Iterations 1
DICPCG:  Solving for p, Initial residual = 0.18932948, Final residual = 0.0085206096, No Iterations 3
DICPCG:  Solving for p, Initial residual = 0.051002124, Final residual = 0.0024606667, No Iterations 9
DICPCG:  Solving for p, Initial residual = 0.014229119, Final residual = 0.00068480487, No Iterations 118
time step continuity errors : sum local = 2.3475589e-08, global = 1.444627e-11, cumulative = -8.5882185e-08
DICPCG:  Solving for p, Initial residual = 0.0086622744, Final residual = 0.0003963854, No Iterations 5
DICPCG:  Solving for p, Initial residual = 0.0023817131, Final residual = 0.00011159801, No Iterations 42
DICPCG:  Solving for p, Initial residual = 0.0014206353, Final residual = 9.5458093e-07, No Iterations 202
time step continuity errors : sum local = 3.3149133e-11, global = 3.5075417e-14, cumulative = -8.588215e-08
ExecutionTime = 6.11 s  ClockTime = 7 s

Time = 0.5

Courant Number mean: 0.00071181706 max: 0.16708553
smoothSolver:  Solving for Ux, Initial residual = 0.0054895373, Final residual = 7.8616097e-07, No Iterations 1
smoothSolver:  Solving for Uy, Initial residual = 0.0082677571, Final residual = 1.0920344e-06, No Iterations 1
smoothSolver:  Solving for Uz, Initial residual = 0.0074624889, Final residual = 1.2225329e-06, No Iterations 1
DICPCG:  Solving for p, Initial residual = 0.10909977, Final residual = 0.0049891308, No Iterations 3
DICPCG:  Solving for p, Initial residual = 0.024306494, Final residual = 0.0010249289, No Iterations 14
DICPCG:  Solving for p, Initial residual = 0.0064857173, Final residual = 0.00031386716, No Iterations 135
time step continuity errors : sum local = 8.8560171e-09, global = -1.7565764e-11, cumulative = -8.5899716e-08
DICPCG:  Solving for p, Initial residual = 0.0047242518, Final residual = 0.000207138, No Iterations 5
DICPCG:  Solving for p, Initial residual = 0.0012469554, Final residual = 6.0783299e-05, No Iterations 38
DICPCG:  Solving for p, Initial residual = 0.00082713009, Final residual = 9.5277324e-07, No Iterations 184
time step continuity errors : sum local = 2.7179805e-11, global = -2.7409732e-14, cumulative = -8.5899743e-08
ExecutionTime = 7.57 s  ClockTime = 9 s

Time = 0.6

Courant Number mean: 0.00071185988 max: 0.16799194
smoothSolver:  Solving for Ux, Initial residual = 0.0043599872, Final residual = 6.708679e-07, No Iterations 1
smoothSolver:  Solving for Uy, Initial residual = 0.0065610349, Final residual = 9.3113913e-07, No Iterations 1
smoothSolver:  Solving for Uz, Initial residual = 0.0059162023, Final residual = 9.9148391e-07, No Iterations 1
DICPCG:  Solving for p, Initial residual = 0.08200121, Final residual = 0.0034937561, No Iterations 3
DICPCG:  Solving for p, Initial residual = 0.017147586, Final residual = 0.00070182064, No Iterations 14
DICPCG:  Solving for p, Initial residual = 0.004416449, Final residual = 0.00020864075, No Iterations 117
time step continuity errors : sum local = 5.0850882e-09, global = -3.0663909e-12, cumulative = -8.590281e-08
DICPCG:  Solving for p, Initial residual = 0.0030114955, Final residual = 0.00012623582, No Iterations 5
DICPCG:  Solving for p, Initial residual = 0.00079962721, Final residual = 3.6733186e-05, No Iterations 56
DICPCG:  Solving for p, Initial residual = 0.00063515984, Final residual = 9.9905923e-07, No Iterations 175
time step continuity errors : sum local = 2.4507953e-11, global = -1.9386161e-14, cumulative = -8.5902829e-08
ExecutionTime = 8.77 s  ClockTime = 10 s

Time = 0.7

Courant Number mean: 0.00071189946 max: 0.16883775
smoothSolver:  Solving for Ux, Initial residual = 0.0036531358, Final residual = 5.9155738e-07, No Iterations 1
smoothSolver:  Solving for Uy, Initial residual = 0.0055028945, Final residual = 8.1604378e-07, No Iterations 1
smoothSolver:  Solving for Uz, Initial residual = 0.0049491198, Final residual = 8.5135915e-07, No Iterations 1
DICPCG:  Solving for p, Initial residual = 0.066515138, Final residual = 0.0032068762, No Iterations 2
DICPCG:  Solving for p, Initial residual = 0.013050115, Final residual = 0.00057652865, No Iterations 14
DICPCG:  Solving for p, Initial residual = 0.0033977383, Final residual = 0.00016002532, No Iterations 120
time step continuity errors : sum local = 3.4565125e-09, global = -1.0109869e-11, cumulative = -8.5912939e-08
DICPCG:  Solving for p, Initial residual = 0.0021918723, Final residual = 9.4795544e-05, No Iterations 5
DICPCG:  Solving for p, Initial residual = 0.00057453225, Final residual = 2.6806322e-05, No Iterations 57
DICPCG:  Solving for p, Initial residual = 0.00044707962, Final residual = 9.7203419e-07, No Iterations 182
time step continuity errors : sum local = 2.1085178e-11, global = -2.0102163e-14, cumulative = -8.5912959e-08
ExecutionTime = 10 s  ClockTime = 11 s

Time = 0.8

Courant Number mean: 0.00071193248 max: 0.1696228
smoothSolver:  Solving for Ux, Initial residual = 0.0031623842, Final residual = 5.3880714e-07, No Iterations 1
smoothSolver:  Solving for Uy, Initial residual = 0.0047702095, Final residual = 7.3418349e-07, No Iterations 1
smoothSolver:  Solving for Uz, Initial residual = 0.0042843458, Final residual = 7.5880885e-07, No Iterations 1
DICPCG:  Solving for p, Initial residual = 0.0563492, Final residual = 0.0025663624, No Iterations 2
DICPCG:  Solving for p, Initial residual = 0.010616607, Final residual = 0.00049337358, No Iterations 11
DICPCG:  Solving for p, Initial residual = 0.0026411452, Final residual = 0.00012346691, No Iterations 16
time step continuity errors : sum local = 2.403377e-09, global = -8.5463121e-10, cumulative = -8.676759e-08
DICPCG:  Solving for p, Initial residual = 0.0011146825, Final residual = 5.3193493e-05, No Iterations 98
DICPCG:  Solving for p, Initial residual = 0.0010531997, Final residual = 4.4461944e-05, No Iterations 6
DICPCG:  Solving for p, Initial residual = 0.00024853316, Final residual = 9.2433371e-07, No Iterations 193
time step continuity errors : sum local = 1.8039568e-11, global = 2.6373302e-14, cumulative = -8.6767564e-08
ExecutionTime = 11.09 s  ClockTime = 12 s

Time = 0.9

Courant Number mean: 0.00071196206 max: 0.17035897
smoothSolver:  Solving for Ux, Initial residual = 0.0027982752, Final residual = 4.9708053e-07, No Iterations 1
smoothSolver:  Solving for Uy, Initial residual = 0.004227087, Final residual = 6.6958819e-07, No Iterations 1
smoothSolver:  Solving for Uz, Initial residual = 0.0037889955, Final residual = 6.8558474e-07, No Iterations 1
DICPCG:  Solving for p, Initial residual = 0.048839695, Final residual = 0.0021370371, No Iterations 2
DICPCG:  Solving for p, Initial residual = 0.0088878936, Final residual = 0.00038669497, No Iterations 9
DICPCG:  Solving for p, Initial residual = 0.0021552305, Final residual = 0.00010752986, No Iterations 15
time step continuity errors : sum local = 1.9109142e-09, global = -5.0533037e-10, cumulative = -8.7272894e-08
DICPCG:  Solving for p, Initial residual = 0.00090762043, Final residual = 4.4856049e-05, No Iterations 119
DICPCG:  Solving for p, Initial residual = 0.00079245264, Final residual = 3.3092203e-05, No Iterations 6
DICPCG:  Solving for p, Initial residual = 0.00018732042, Final residual = 9.6153918e-07, No Iterations 175
time step continuity errors : sum local = 1.7114731e-11, global = 2.2175383e-14, cumulative = -8.7272872e-08
ExecutionTime = 12.18 s  ClockTime = 13 s

Time = 1

Courant Number mean: 0.00071198928 max: 0.17104861
smoothSolver:  Solving for Ux, Initial residual = 0.002517214, Final residual = 4.6377195e-07, No Iterations 1
smoothSolver:  Solving for Uy, Initial residual = 0.0038044924, Final residual = 6.2602748e-07, No Iterations 1
smoothSolver:  Solving for Uz, Initial residual = 0.0034065033, Final residual = 6.2843278e-07, No Iterations 1
DICPCG:  Solving for p, Initial residual = 0.043386924, Final residual = 0.001815203, No Iterations 2
DICPCG:  Solving for p, Initial residual = 0.0076900136, Final residual = 0.00035382672, No Iterations 8
DICPCG:  Solving for p, Initial residual = 0.0018388977, Final residual = 9.0248226e-05, No Iterations 15
time step continuity errors : sum local = 1.4779444e-09, global = -2.9263085e-10, cumulative = -8.7565503e-08
DICPCG:  Solving for p, Initial residual = 0.00077161785, Final residual = 3.7511335e-05, No Iterations 130
DICPCG:  Solving for p, Initial residual = 0.00059817361, Final residual = 2.6959306e-05, No Iterations 6
DICPCG:  Solving for p, Initial residual = 0.00014410054, Final residual = 9.791258e-07, No Iterations 172
time step continuity errors : sum local = 1.6049524e-11, global = -6.1088351e-15, cumulative = -8.7565509e-08
ExecutionTime = 13.51 s  ClockTime = 15 s

Time = 1.1

Courant Number mean: 0.00071201334 max: 0.17169222
smoothSolver:  Solving for Ux, Initial residual = 0.0022917062, Final residual = 4.3515082e-07, No Iterations 1
smoothSolver:  Solving for Uy, Initial residual = 0.0034647725, Final residual = 5.8196311e-07, No Iterations 1
smoothSolver:  Solving for Uz, Initial residual = 0.0030992855, Final residual = 5.7899608e-07, No Iterations 1
DICPCG:  Solving for p, Initial residual = 0.039036797, Final residual = 0.0016127316, No Iterations 2
DICPCG:  Solving for p, Initial residual = 0.0067908052, Final residual = 0.00028878513, No Iterations 8
DICPCG:  Solving for p, Initial residual = 0.0015987349, Final residual = 7.5343867e-05, No Iterations 15
time step continuity errors : sum local = 1.1461853e-09, global = -1.4772385e-10, cumulative = -8.7713233e-08
DICPCG:  Solving for p, Initial residual = 0.00066406658, Final residual = 3.2506461e-05, No Iterations 25
DICPCG:  Solving for p, Initial residual = 0.00031437532, Final residual = 1.5290278e-05, No Iterations 137
DICPCG:  Solving for p, Initial residual = 0.00023376193, Final residual = 9.8460511e-07, No Iterations 169
time step continuity errors : sum local = 1.4983607e-11, global = -1.3786954e-14, cumulative = -8.7713247e-08
ExecutionTime = 14.68 s  ClockTime = 16 s

Time = 1.2

Courant Number mean: 0.00071203395 max: 0.17228151
smoothSolver:  Solving for Ux, Initial residual = 0.002104879, Final residual = 4.0453363e-07, No Iterations 1
smoothSolver:  Solving for Uy, Initial residual = 0.0031846249, Final residual = 5.4379532e-07, No Iterations 1
smoothSolver:  Solving for Uz, Initial residual = 0.0028474109, Final residual = 5.3588774e-07, No Iterations 1
DICPCG:  Solving for p, Initial residual = 0.035617202, Final residual = 0.0014954433, No Iterations 2
DICPCG:  Solving for p, Initial residual = 0.0060997672, Final residual = 0.00025422481, No Iterations 8
DICPCG:  Solving for p, Initial residual = 0.0014267119, Final residual = 6.7921689e-05, No Iterations 15
time step continuity errors : sum local = 9.6581856e-10, global = -3.0076636e-11, cumulative = -8.7743323e-08
DICPCG:  Solving for p, Initial residual = 0.00059776603, Final residual = 2.7321104e-05, No Iterations 23
DICPCG:  Solving for p, Initial residual = 0.00028224265, Final residual = 1.2595851e-05, No Iterations 13
DICPCG:  Solving for p, Initial residual = 9.6428344e-05, Final residual = 9.7716336e-07, No Iterations 160
time step continuity errors : sum local = 1.3893039e-11, global = -1.0386462e-14, cumulative = -8.7743334e-08
ExecutionTime = 15.51 s  ClockTime = 17 s

Time = 1.3

Courant Number mean: 0.00071205133 max: 0.17279745
smoothSolver:  Solving for Ux, Initial residual = 0.0019491409, Final residual = 3.8224161e-07, No Iterations 1
smoothSolver:  Solving for Uy, Initial residual = 0.002947914, Final residual = 5.1567081e-07, No Iterations 1
smoothSolver:  Solving for Uz, Initial residual = 0.0026355834, Final residual = 4.9424612e-07, No Iterations 1
DICPCG:  Solving for p, Initial residual = 0.032870069, Final residual = 0.0013861637, No Iterations 2
DICPCG:  Solving for p, Initial residual = 0.0055331131, Final residual = 0.00020943965, No Iterations 8
DICPCG:  Solving for p, Initial residual = 0.0012672119, Final residual = 5.7219154e-05, No Iterations 22
time step continuity errors : sum local = 7.6430893e-10, global = 9.3324145e-11, cumulative = -8.7650009e-08
DICPCG:  Solving for p, Initial residual = 0.00061618848, Final residual = 2.9878121e-05, No Iterations 13
DICPCG:  Solving for p, Initial residual = 0.00021393278, Final residual = 1.0399069e-05, No Iterations 147
DICPCG:  Solving for p, Initial residual = 0.00018315773, Final residual = 9.8887755e-07, No Iterations 34
time step continuity errors : sum local = 1.3201804e-11, global = -3.329374e-12, cumulative = -8.7653339e-08
ExecutionTime = 16.4 s  ClockTime = 18 s

Time = 1.4

Courant Number mean: 0.000712066 max: 0.17322938
smoothSolver:  Solving for Ux, Initial residual = 0.001816055, Final residual = 3.5622136e-07, No Iterations 1
smoothSolver:  Solving for Uy, Initial residual = 0.0027466571, Final residual = 4.8149189e-07, No Iterations 1
smoothSolver:  Solving for Uz, Initial residual = 0.0024570382, Final residual = 4.6331508e-07, No Iterations 1
DICPCG:  Solving for p, Initial residual = 0.03028033, Final residual = 0.0012110173, No Iterations 2
DICPCG:  Solving for p, Initial residual = 0.0049754787, Final residual = 0.00019021805, No Iterations 8
DICPCG:  Solving for p, Initial residual = 0.0011421018, Final residual = 5.5978157e-05, No Iterations 23
time step continuity errors : sum local = 7.0586424e-10, global = 1.5944772e-10, cumulative = -8.7493891e-08
DICPCG:  Solving for p, Initial residual = 0.00057620656, Final residual = 2.7233423e-05, No Iterations 143
DICPCG:  Solving for p, Initial residual = 0.00036278786, Final residual = 1.6036732e-05, No Iterations 5
DICPCG:  Solving for p, Initial residual = 9.2043384e-05, Final residual = 9.6148211e-07, No Iterations 70
time step continuity errors : sum local = 1.2112822e-11, global = -1.7816911e-12, cumulative = -8.7495673e-08
ExecutionTime = 17.3 s  ClockTime = 19 s

Time = 1.5

Courant Number mean: 0.00071207883 max: 0.17359967
smoothSolver:  Solving for Ux, Initial residual = 0.0017016933, Final residual = 3.3229734e-07, No Iterations 1
smoothSolver:  Solving for Uy, Initial residual = 0.0025731768, Final residual = 4.5286827e-07, No Iterations 1
smoothSolver:  Solving for Uz, Initial residual = 0.0023001855, Final residual = 4.2874562e-07, No Iterations 1
DICPCG:  Solving for p, Initial residual = 0.028282192, Final residual = 0.0011598159, No Iterations 2
DICPCG:  Solving for p, Initial residual = 0.0046370298, Final residual = 0.00018250716, No Iterations 8
DICPCG:  Solving for p, Initial residual = 0.0010828323, Final residual = 5.3046203e-05, No Iterations 26
time step continuity errors : sum local = 6.3384805e-10, global = 1.7461601e-10, cumulative = -8.7321057e-08
DICPCG:  Solving for p, Initial residual = 0.00055364224, Final residual = 2.7210319e-05, No Iterations 139
DICPCG:  Solving for p, Initial residual = 0.00036917698, Final residual = 1.7093489e-05, No Iterations 5
DICPCG:  Solving for p, Initial residual = 9.4425496e-05, Final residual = 9.5021509e-07, No Iterations 66
time step continuity errors : sum local = 1.1342371e-11, global = -1.3855833e-12, cumulative = -8.7322442e-08
ExecutionTime = 18.42 s  ClockTime = 20 s

Time = 1.6

Courant Number mean: 0.00071209237 max: 0.17393672
smoothSolver:  Solving for Ux, Initial residual = 0.0016024466, Final residual = 3.1332733e-07, No Iterations 1
smoothSolver:  Solving for Uy, Initial residual = 0.0024231913, Final residual = 4.2635515e-07, No Iterations 1
smoothSolver:  Solving for Uz, Initial residual = 0.0021654713, Final residual = 4.007717e-07, No Iterations 1
DICPCG:  Solving for p, Initial residual = 0.026287343, Final residual = 0.0009799839, No Iterations 2
DICPCG:  Solving for p, Initial residual = 0.0042180762, Final residual = 0.00016825462, No Iterations 8
DICPCG:  Solving for p, Initial residual = 0.00097713718, Final residual = 4.6516509e-05, No Iterations 155
time step continuity errors : sum local = 5.2876081e-10, global = 7.8768234e-13, cumulative = -8.7321655e-08
DICPCG:  Solving for p, Initial residual = 0.00042899405, Final residual = 2.1077258e-05, No Iterations 7
DICPCG:  Solving for p, Initial residual = 0.00012790917, Final residual = 6.1657705e-06, No Iterations 31
DICPCG:  Solving for p, Initial residual = 7.9439786e-05, Final residual = 9.9425954e-07, No Iterations 65
time step continuity errors : sum local = 1.1289766e-11, global = 5.6393427e-13, cumulative = -8.7321091e-08
ExecutionTime = 19.37 s  ClockTime = 21 s

Time = 1.7

Courant Number mean: 0.00071210517 max: 0.17426298
smoothSolver:  Solving for Ux, Initial residual = 0.0015155975, Final residual = 2.9509516e-07, No Iterations 1
smoothSolver:  Solving for Uy, Initial residual = 0.0022904355, Final residual = 4.0035317e-07, No Iterations 1
smoothSolver:  Solving for Uz, Initial residual = 0.0020501733, Final residual = 3.7866145e-07, No Iterations 1
DICPCG:  Solving for p, Initial residual = 0.024489927, Final residual = 0.0010189186, No Iterations 2
DICPCG:  Solving for p, Initial residual = 0.0039291651, Final residual = 0.00016162427, No Iterations 8
DICPCG:  Solving for p, Initial residual = 0.00092922126, Final residual = 4.6437904e-05, No Iterations 16
time step continuity errors : sum local = 5.0403402e-10, global = 1.4460356e-10, cumulative = -8.7176487e-08
DICPCG:  Solving for p, Initial residual = 0.00040798642, Final residual = 1.9394211e-05, No Iterations 147
DICPCG:  Solving for p, Initial residual = 0.00027450174, Final residual = 1.3657574e-05, No Iterations 5
DICPCG:  Solving for p, Initial residual = 7.3440785e-05, Final residual = 8.8619452e-07, No Iterations 61
time step continuity errors : sum local = 9.6089339e-12, global = -1.2402082e-12, cumulative = -8.7177727e-08
ExecutionTime = 20.25 s  ClockTime = 22 s

Time = 1.8

Courant Number mean: 0.00071211733 max: 0.17458156
smoothSolver:  Solving for Ux, Initial residual = 0.0014388599, Final residual = 2.8036017e-07, No Iterations 1
smoothSolver:  Solving for Uy, Initial residual = 0.0021736083, Final residual = 3.7771579e-07, No Iterations 1
smoothSolver:  Solving for Uz, Initial residual = 0.0019476434, Final residual = 3.5981776e-07, No Iterations 1
DICPCG:  Solving for p, Initial residual = 0.023171222, Final residual = 0.00089666839, No Iterations 2
DICPCG:  Solving for p, Initial residual = 0.0036603131, Final residual = 0.00015500765, No Iterations 8
DICPCG:  Solving for p, Initial residual = 0.00087687566, Final residual = 4.2815161e-05, No Iterations 153
time step continuity errors : sum local = 4.4480872e-10, global = 5.510254e-13, cumulative = -8.7177176e-08
DICPCG:  Solving for p, Initial residual = 0.00039177513, Final residual = 1.8238316e-05, No Iterations 8
DICPCG:  Solving for p, Initial residual = 0.00012105394, Final residual = 5.954463e-06, No Iterations 31
DICPCG:  Solving for p, Initial residual = 8.1535539e-05, Final residual = 9.8488933e-07, No Iterations 64
time step continuity errors : sum local = 1.0221692e-11, global = 3.8580775e-14, cumulative = -8.7177138e-08
ExecutionTime = 21.2 s  ClockTime = 23 s

Time = 1.9

Courant Number mean: 0.00071212917 max: 0.1748628
smoothSolver:  Solving for Ux, Initial residual = 0.001369447, Final residual = 2.6806545e-07, No Iterations 1
smoothSolver:  Solving for Uy, Initial residual = 0.0020690055, Final residual = 3.5727943e-07, No Iterations 1
smoothSolver:  Solving for Uz, Initial residual = 0.0018564682, Final residual = 3.4285833e-07, No Iterations 1
DICPCG:  Solving for p, Initial residual = 0.021822453, Final residual = 0.00096657848, No Iterations 2
DICPCG:  Solving for p, Initial residual = 0.0034676553, Final residual = 0.00015879174, No Iterations 8
DICPCG:  Solving for p, Initial residual = 0.00085683608, Final residual = 3.9133926e-05, No Iterations 154
time step continuity errors : sum local = 3.9015799e-10, global = 2.3246099e-13, cumulative = -8.7176905e-08
DICPCG:  Solving for p, Initial residual = 0.00039137021, Final residual = 1.7467597e-05, No Iterations 8
DICPCG:  Solving for p, Initial residual = 0.00011748767, Final residual = 5.8174206e-06, No Iterations 27
DICPCG:  Solving for p, Initial residual = 7.429052e-05, Final residual = 9.8750035e-07, No Iterations 72
time step continuity errors : sum local = 9.8359829e-12, global = -1.1288174e-12, cumulative = -8.7178034e-08
ExecutionTime = 22.16 s  ClockTime = 24 s

Time = 2

Courant Number mean: 0.00071213905 max: 0.17510442
smoothSolver:  Solving for Ux, Initial residual = 0.0013077179, Final residual = 2.539991e-07, No Iterations 1
smoothSolver:  Solving for Uy, Initial residual = 0.0019758484, Final residual = 3.388352e-07, No Iterations 1
smoothSolver:  Solving for Uz, Initial residual = 0.0017730815, Final residual = 3.2404972e-07, No Iterations 1
DICPCG:  Solving for p, Initial residual = 0.020904447, Final residual = 0.00082029641, No Iterations 2
DICPCG:  Solving for p, Initial residual = 0.0032509972, Final residual = 0.00014355116, No Iterations 8
DICPCG:  Solving for p, Initial residual = 0.00079126055, Final residual = 3.7777308e-05, No Iterations 154
time step continuity errors : sum local = 3.6204615e-10, global = 6.0382624e-13, cumulative = -8.717743e-08
DICPCG:  Solving for p, Initial residual = 0.00038344478, Final residual = 1.7648824e-05, No Iterations 8
DICPCG:  Solving for p, Initial residual = 0.00011577599, Final residual = 5.7603679e-06, No Iterations 29
DICPCG:  Solving for p, Initial residual = 7.6563647e-05, Final residual = 9.6635187e-07, No Iterations 163
time step continuity errors : sum local = 9.2491084e-12, global = -4.2074898e-14, cumulative = -8.7177472e-08
ExecutionTime = 23.59 s  ClockTime = 25 s

Time = 2.1

Courant Number mean: 0.00071214766 max: 0.17532879
smoothSolver:  Solving for Ux, Initial residual = 0.0012518765, Final residual = 2.4151787e-07, No Iterations 1
smoothSolver:  Solving for Uy, Initial residual = 0.0018918566, Final residual = 3.2554412e-07, No Iterations 1
smoothSolver:  Solving for Uz, Initial residual = 0.0016987631, Final residual = 3.0882648e-07, No Iterations 1
DICPCG:  Solving for p, Initial residual = 0.019624963, Final residual = 0.00086332437, No Iterations 2
DICPCG:  Solving for p, Initial residual = 0.0030651015, Final residual = 0.00014832717, No Iterations 8
DICPCG:  Solving for p, Initial residual = 0.00077472661, Final residual = 3.7777476e-05, No Iterations 155
time step continuity errors : sum local = 3.4888127e-10, global = 4.1491686e-13, cumulative = -8.7177057e-08
DICPCG:  Solving for p, Initial residual = 0.00039881302, Final residual = 1.8416486e-05, No Iterations 8
DICPCG:  Solving for p, Initial residual = 0.00011695491, Final residual = 5.755581e-06, No Iterations 27
DICPCG:  Solving for p, Initial residual = 7.7605088e-05, Final residual = 9.4768593e-07, No Iterations 159
time step continuity errors : sum local = 8.741481e-12, global = -3.3756912e-14, cumulative = -8.7177091e-08
ExecutionTime = 24.78 s  ClockTime = 26 s

Time = 2.2

Courant Number mean: 0.00071215748 max: 0.17554046
smoothSolver:  Solving for Ux, Initial residual = 0.001200394, Final residual = 2.3048069e-07, No Iterations 1
smoothSolver:  Solving for Uy, Initial residual = 0.0018150885, Final residual = 3.115623e-07, No Iterations 1
smoothSolver:  Solving for Uz, Initial residual = 0.0016310087, Final residual = 2.9596928e-07, No Iterations 1
DICPCG:  Solving for p, Initial residual = 0.018764673, Final residual = 0.00079986344, No Iterations 2
DICPCG:  Solving for p, Initial residual = 0.0029032149, Final residual = 0.00014120416, No Iterations 8
DICPCG:  Solving for p, Initial residual = 0.0007246013, Final residual = 3.4937214e-05, No Iterations 156
time step continuity errors : sum local = 3.1150038e-10, global = 1.3598644e-13, cumulative = -8.7176955e-08
DICPCG:  Solving for p, Initial residual = 0.00039835311, Final residual = 1.7440843e-05, No Iterations 8
DICPCG:  Solving for p, Initial residual = 0.00011434114, Final residual = 5.6411817e-06, No Iterations 24
DICPCG:  Solving for p, Initial residual = 7.1766015e-05, Final residual = 9.1560198e-07, No Iterations 162
time step continuity errors : sum local = 8.152977e-12, global = -2.271385e-14, cumulative = -8.7176978e-08
ExecutionTime = 25.96 s  ClockTime = 28 s

Time = 2.3

Courant Number mean: 0.00071216724 max: 0.17574541
smoothSolver:  Solving for Ux, Initial residual = 0.0011534655, Final residual = 2.2392978e-07, No Iterations 1
smoothSolver:  Solving for Uy, Initial residual = 0.0017454923, Final residual = 2.9843757e-07, No Iterations 1
smoothSolver:  Solving for Uz, Initial residual = 0.0015691902, Final residual = 2.8710451e-07, No Iterations 1
DICPCG:  Solving for p, Initial residual = 0.018160609, Final residual = 0.00080351887, No Iterations 2
DICPCG:  Solving for p, Initial residual = 0.0028162176, Final residual = 0.00012693403, No Iterations 9
DICPCG:  Solving for p, Initial residual = 0.00070104079, Final residual = 3.3958258e-05, No Iterations 156
time step continuity errors : sum local = 2.9261471e-10, global = 4.8085406e-14, cumulative = -8.717693e-08
DICPCG:  Solving for p, Initial residual = 0.00042469505, Final residual = 2.1031765e-05, No Iterations 6
DICPCG:  Solving for p, Initial residual = 0.00011790638, Final residual = 5.7793566e-06, No Iterations 24
DICPCG:  Solving for p, Initial residual = 7.6984456e-05, Final residual = 9.9613167e-07, No Iterations 166
time step continuity errors : sum local = 8.5710494e-12, global = -2.3400153e-14, cumulative = -8.7176953e-08
ExecutionTime = 27.14 s  ClockTime = 29 s

Time = 2.4

Courant Number mean: 0.00071217603 max: 0.17594904
smoothSolver:  Solving for Ux, Initial residual = 0.0011095182, Final residual = 2.130426e-07, No Iterations 1
smoothSolver:  Solving for Uy, Initial residual = 0.0016819875, Final residual = 2.8721006e-07, No Iterations 1
smoothSolver:  Solving for Uz, Initial residual = 0.0015131657, Final residual = 2.7634022e-07, No Iterations 1
DICPCG:  Solving for p, Initial residual = 0.017398337, Final residual = 0.00070573726, No Iterations 2
DICPCG:  Solving for p, Initial residual = 0.0026348535, Final residual = 0.00012730516, No Iterations 8
DICPCG:  Solving for p, Initial residual = 0.00067094092, Final residual = 3.2938559e-05, No Iterations 134
time step continuity errors : sum local = 2.7466853e-10, global = 1.2317957e-13, cumulative = -8.717683e-08
DICPCG:  Solving for p, Initial residual = 0.00039199421, Final residual = 1.7492013e-05, No Iterations 8
DICPCG:  Solving for p, Initial residual = 0.00011247742, Final residual = 5.5523783e-06, No Iterations 36
DICPCG:  Solving for p, Initial residual = 8.6967867e-05, Final residual = 9.9867148e-07, No Iterations 166
time step continuity errors : sum local = 8.3161283e-12, global = 1.4213104e-14, cumulative = -8.7176816e-08
ExecutionTime = 28.3 s  ClockTime = 30 s

Time = 2.5

Courant Number mean: 0.00071218466 max: 0.17615444
smoothSolver:  Solving for Ux, Initial residual = 0.0010693335, Final residual = 2.0383024e-07, No Iterations 1
smoothSolver:  Solving for Uy, Initial residual = 0.001623375, Final residual = 2.8018957e-07, No Iterations 1
smoothSolver:  Solving for Uz, Initial residual = 0.0014607369, Final residual = 2.6422118e-07, No Iterations 1
DICPCG:  Solving for p, Initial residual = 0.016389064, Final residual = 0.00072054329, No Iterations 3
DICPCG:  Solving for p, Initial residual = 0.0025911531, Final residual = 0.00011871598, No Iterations 9
DICPCG:  Solving for p, Initial residual = 0.00062452417, Final residual = 2.9527239e-05, No Iterations 151
time step continuity errors : sum local = 2.3876054e-10, global = 9.3613384e-15, cumulative = -8.7176806e-08
DICPCG:  Solving for p, Initial residual = 0.00031567792, Final residual = 1.4261834e-05, No Iterations 8
DICPCG:  Solving for p, Initial residual = 9.5545105e-05, Final residual = 4.7304958e-06, No Iterations 28
DICPCG:  Solving for p, Initial residual = 6.027075e-05, Final residual = 8.8738089e-07, No Iterations 162
time step continuity errors : sum local = 7.1689793e-12, global = -2.0070371e-14, cumulative = -8.7176827e-08
ExecutionTime = 29.73 s  ClockTime = 32 s

Time = 2.6

Courant Number mean: 0.00071219344 max: 0.17635635
smoothSolver:  Solving for Ux, Initial residual = 0.0010329234, Final residual = 1.9678049e-07, No Iterations 1
smoothSolver:  Solving for Uy, Initial residual = 0.0015696288, Final residual = 2.7321601e-07, No Iterations 1
smoothSolver:  Solving for Uz, Initial residual = 0.0014120638, Final residual = 2.5339079e-07, No Iterations 1
DICPCG:  Solving for p, Initial residual = 0.015800966, Final residual = 0.00076351764, No Iterations 2
DICPCG:  Solving for p, Initial residual = 0.0024249394, Final residual = 0.00010574082, No Iterations 11
DICPCG:  Solving for p, Initial residual = 0.00065178146, Final residual = 3.0183986e-05, No Iterations 16
time step continuity errors : sum local = 2.3710225e-10, global = 9.9261856e-11, cumulative = -8.7077565e-08
DICPCG:  Solving for p, Initial residual = 0.00029803687, Final residual = 1.4578919e-05, No Iterations 147
DICPCG:  Solving for p, Initial residual = 0.00025007405, Final residual = 1.0478934e-05, No Iterations 5
DICPCG:  Solving for p, Initial residual = 6.0939396e-05, Final residual = 9.9845658e-07, No Iterations 50
time step continuity errors : sum local = 7.836383e-12, global = -2.8308663e-13, cumulative = -8.7077848e-08
ExecutionTime = 30.59 s  ClockTime = 33 s

Time = 2.7

Courant Number mean: 0.00071220265 max: 0.17656009
smoothSolver:  Solving for Ux, Initial residual = 0.0009989452, Final residual = 1.9092506e-07, No Iterations 1
smoothSolver:  Solving for Uy, Initial residual = 0.0015195437, Final residual = 2.674609e-07, No Iterations 1
smoothSolver:  Solving for Uz, Initial residual = 0.0013668254, Final residual = 2.437986e-07, No Iterations 1
DICPCG:  Solving for p, Initial residual = 0.015267592, Final residual = 0.00066193605, No Iterations 3
DICPCG:  Solving for p, Initial residual = 0.0023950766, Final residual = 0.00011254531, No Iterations 9
DICPCG:  Solving for p, Initial residual = 0.00058002874, Final residual = 2.8505816e-05, No Iterations 152
time step continuity errors : sum local = 2.1778947e-10, global = -3.7506338e-13, cumulative = -8.7078223e-08
DICPCG:  Solving for p, Initial residual = 0.0003242074, Final residual = 1.6143787e-05, No Iterations 7
DICPCG:  Solving for p, Initial residual = 9.3638997e-05, Final residual = 4.6563305e-06, No Iterations 33
DICPCG:  Solving for p, Initial residual = 6.2399082e-05, Final residual = 9.799009e-07, No Iterations 159
time step continuity errors : sum local = 7.4793306e-12, global = -1.9105102e-14, cumulative = -8.7078242e-08
ExecutionTime = 31.79 s  ClockTime = 34 s

Time = 2.8

Courant Number mean: 0.00071221188 max: 0.17676839
smoothSolver:  Solving for Ux, Initial residual = 0.00096670229, Final residual = 1.8670314e-07, No Iterations 1
smoothSolver:  Solving for Uy, Initial residual = 0.0014744378, Final residual = 2.605812e-07, No Iterations 1
smoothSolver:  Solving for Uz, Initial residual = 0.0013246797, Final residual = 2.3474573e-07, No Iterations 1
DICPCG:  Solving for p, Initial residual = 0.014864803, Final residual = 0.00063882294, No Iterations 3
DICPCG:  Solving for p, Initial residual = 0.0023543272, Final residual = 0.0001120744, No Iterations 9
DICPCG:  Solving for p, Initial residual = 0.00058986894, Final residual = 2.9035617e-05, No Iterations 148
time step continuity errors : sum local = 2.1596244e-10, global = -1.7729193e-13, cumulative = -8.7078419e-08
DICPCG:  Solving for p, Initial residual = 0.00032002019, Final residual = 1.5821852e-05, No Iterations 7
DICPCG:  Solving for p, Initial residual = 9.511749e-05, Final residual = 4.620343e-06, No Iterations 32
DICPCG:  Solving for p, Initial residual = 6.0330367e-05, Final residual = 9.3807913e-07, No Iterations 160
time step continuity errors : sum local = 6.9711538e-12, global = 2.5397231e-15, cumulative = -8.7078417e-08
ExecutionTime = 32.95 s  ClockTime = 35 s

Time = 2.9

Courant Number mean: 0.00071222099 max: 0.17698152
smoothSolver:  Solving for Ux, Initial residual = 0.00093688547, Final residual = 1.8089043e-07, No Iterations 1
smoothSolver:  Solving for Uy, Initial residual = 0.0014326679, Final residual = 2.5498139e-07, No Iterations 1
smoothSolver:  Solving for Uz, Initial residual = 0.0012858428, Final residual = 2.2770401e-07, No Iterations 1
DICPCG:  Solving for p, Initial residual = 0.014230464, Final residual = 0.00069081103, No Iterations 3
DICPCG:  Solving for p, Initial residual = 0.0022849792, Final residual = 0.00011155776, No Iterations 9
DICPCG:  Solving for p, Initial residual = 0.0005819004, Final residual = 2.7558451e-05, No Iterations 146
time step continuity errors : sum local = 1.9981525e-10, global = 3.0759579e-13, cumulative = -8.7078109e-08
DICPCG:  Solving for p, Initial residual = 0.0003138409, Final residual = 1.4666936e-05, No Iterations 7
DICPCG:  Solving for p, Initial residual = 9.2528244e-05, Final residual = 4.2633416e-06, No Iterations 42
DICPCG:  Solving for p, Initial residual = 6.3082168e-05, Final residual = 9.840201e-07, No Iterations 151
time step continuity errors : sum local = 7.1285405e-12, global = -1.4504271e-14, cumulative = -8.7078124e-08
ExecutionTime = 34.12 s  ClockTime = 36 s

Time = 3

Courant Number mean: 0.0007122302 max: 0.17719602
smoothSolver:  Solving for Ux, Initial residual = 0.00090918705, Final residual = 1.737089e-07, No Iterations 1
smoothSolver:  Solving for Uy, Initial residual = 0.0013930356, Final residual = 2.4790589e-07, No Iterations 1
smoothSolver:  Solving for Uz, Initial residual = 0.0012491705, Final residual = 2.1995201e-07, No Iterations 1
DICPCG:  Solving for p, Initial residual = 0.013883086, Final residual = 0.00061743755, No Iterations 5
DICPCG:  Solving for p, Initial residual = 0.002251203, Final residual = 0.00010335374, No Iterations 8
DICPCG:  Solving for p, Initial residual = 0.00056037622, Final residual = 2.7901036e-05, No Iterations 15
time step continuity errors : sum local = 1.974791e-10, global = 4.0871156e-11, cumulative = -8.7037252e-08
DICPCG:  Solving for p, Initial residual = 0.00028402505, Final residual = 1.3755548e-05, No Iterations 140
DICPCG:  Solving for p, Initial residual = 0.00020570822, Final residual = 9.8104276e-06, No Iterations 6
DICPCG:  Solving for p, Initial residual = 5.0249371e-05, Final residual = 9.7738146e-07, No Iterations 45
time step continuity errors : sum local = 6.9146445e-12, global = -3.9466405e-13, cumulative = -8.7037647e-08
ExecutionTime = 35.19 s  ClockTime = 37 s

Time = 3.1

Courant Number mean: 0.00071223857 max: 0.17741058
smoothSolver:  Solving for Ux, Initial residual = 0.00088279809, Final residual = 1.6691664e-07, No Iterations 1
smoothSolver:  Solving for Uy, Initial residual = 0.0013554368, Final residual = 2.4240014e-07, No Iterations 1
smoothSolver:  Solving for Uz, Initial residual = 0.0012138777, Final residual = 2.1203751e-07, No Iterations 1
DICPCG:  Solving for p, Initial residual = 0.013401157, Final residual = 0.0006268606, No Iterations 4
DICPCG:  Solving for p, Initial residual = 0.0021734369, Final residual = 9.9618317e-05, No Iterations 9
DICPCG:  Solving for p, Initial residual = 0.0005520473, Final residual = 2.7051297e-05, No Iterations 15
time step continuity errors : sum local = 1.8716824e-10, global = 6.7595995e-11, cumulative = -8.6970051e-08
DICPCG:  Solving for p, Initial residual = 0.00029038313, Final residual = 1.4444299e-05, No Iterations 143
DICPCG:  Solving for p, Initial residual = 0.00021621662, Final residual = 9.4745836e-06, No Iterations 5
DICPCG:  Solving for p, Initial residual = 5.4428575e-05, Final residual = 9.7367289e-07, No Iterations 47
time step continuity errors : sum local = 6.7324901e-12, global = -3.1817115e-13, cumulative = -8.6970369e-08
ExecutionTime = 36.02 s  ClockTime = 38 s

Time = 3.2

Courant Number mean: 0.00071224633 max: 0.17761301
smoothSolver:  Solving for Ux, Initial residual = 0.00085783259, Final residual = 1.6179955e-07, No Iterations 1
smoothSolver:  Solving for Uy, Initial residual = 0.0013200023, Final residual = 2.373718e-07, No Iterations 1
smoothSolver:  Solving for Uz, Initial residual = 0.0011808226, Final residual = 2.0487942e-07, No Iterations 1
DICPCG:  Solving for p, Initial residual = 0.012935403, Final residual = 0.00058504845, No Iterations 4
DICPCG:  Solving for p, Initial residual = 0.002073206, Final residual = 9.9951495e-05, No Iterations 9
DICPCG:  Solving for p, Initial residual = 0.00052470892, Final residual = 2.4744849e-05, No Iterations 150
time step continuity errors : sum local = 1.6746917e-10, global = -2.1483796e-13, cumulative = -8.6970584e-08
DICPCG:  Solving for p, Initial residual = 0.00031160888, Final residual = 1.2716721e-05, No Iterations 6
DICPCG:  Solving for p, Initial residual = 8.8058192e-05, Final residual = 4.3105855e-06, No Iterations 29
DICPCG:  Solving for p, Initial residual = 5.8678044e-05, Final residual = 9.4496714e-07, No Iterations 160
time step continuity errors : sum local = 6.3901675e-12, global = -6.9859216e-15, cumulative = -8.6970591e-08
ExecutionTime = 37.19 s  ClockTime = 39 s

Time = 3.3

Courant Number mean: 0.00071225427 max: 0.17780716
smoothSolver:  Solving for Ux, Initial residual = 0.00083463138, Final residual = 1.5872792e-07, No Iterations 1
smoothSolver:  Solving for Uy, Initial residual = 0.0012864767, Final residual = 2.3280057e-07, No Iterations 1
smoothSolver:  Solving for Uz, Initial residual = 0.0011493753, Final residual = 1.9985894e-07, No Iterations 1
DICPCG:  Solving for p, Initial residual = 0.012671496, Final residual = 0.00051622654, No Iterations 5
DICPCG:  Solving for p, Initial residual = 0.0020452574, Final residual = 0.00010074789, No Iterations 8
DICPCG:  Solving for p, Initial residual = 0.00052351615, Final residual = 2.5330855e-05, No Iterations 15
time step continuity errors : sum local = 1.6782587e-10, global = 5.2883012e-11, cumulative = -8.6917708e-08
DICPCG:  Solving for p, Initial residual = 0.00027877436, Final residual = 1.3454946e-05, No Iterations 137
DICPCG:  Solving for p, Initial residual = 0.00019136994, Final residual = 8.7474934e-06, No Iterations 6
DICPCG:  Solving for p, Initial residual = 4.8857145e-05, Final residual = 9.9866975e-07, No Iterations 72
time step continuity errors : sum local = 6.6129438e-12, global = -1.2183223e-13, cumulative = -8.691783e-08
ExecutionTime = 38.07 s  ClockTime = 40 s

Time = 3.4

Courant Number mean: 0.00071226336 max: 0.1779971
smoothSolver:  Solving for Ux, Initial residual = 0.00081227936, Final residual = 1.5409878e-07, No Iterations 1
smoothSolver:  Solving for Uy, Initial residual = 0.0012537965, Final residual = 2.2735845e-07, No Iterations 1
smoothSolver:  Solving for Uz, Initial residual = 0.0011195584, Final residual = 1.9344046e-07, No Iterations 1
DICPCG:  Solving for p, Initial residual = 0.012478202, Final residual = 0.00051722655, No Iterations 4
DICPCG:  Solving for p, Initial residual = 0.0019966045, Final residual = 8.9844174e-05, No Iterations 12
DICPCG:  Solving for p, Initial residual = 0.00055605755, Final residual = 2.588436e-05, No Iterations 149
time step continuity errors : sum local = 1.6802408e-10, global = -1.1913677e-13, cumulative = -8.6917949e-08
DICPCG:  Solving for p, Initial residual = 0.00035790389, Final residual = 1.7810329e-05, No Iterations 5
DICPCG:  Solving for p, Initial residual = 0.00010013877, Final residual = 4.4398696e-06, No Iterations 28
DICPCG:  Solving for p, Initial residual = 6.3594798e-05, Final residual = 8.6902587e-07, No Iterations 162
time step continuity errors : sum local = 5.6353483e-12, global = -2.2098305e-14, cumulative = -8.6917971e-08
ExecutionTime = 39.23 s  ClockTime = 42 s

Time = 3.5

Courant Number mean: 0.00071227263 max: 0.17816534
smoothSolver:  Solving for Ux, Initial residual = 0.00079205286, Final residual = 1.5040723e-07, No Iterations 1
smoothSolver:  Solving for Uy, Initial residual = 0.0012229771, Final residual = 2.218675e-07, No Iterations 1
smoothSolver:  Solving for Uz, Initial residual = 0.0010913407, Final residual = 1.8925588e-07, No Iterations 1
DICPCG:  Solving for p, Initial residual = 0.011843382, Final residual = 0.00055243017, No Iterations 4
DICPCG:  Solving for p, Initial residual = 0.0019079268, Final residual = 8.9775049e-05, No Iterations 12
DICPCG:  Solving for p, Initial residual = 0.00053928748, Final residual = 2.6492003e-05, No Iterations 146
time step continuity errors : sum local = 1.6856223e-10, global = 1.6316597e-13, cumulative = -8.6917808e-08
DICPCG:  Solving for p, Initial residual = 0.00033680949, Final residual = 1.4410788e-05, No Iterations 6
DICPCG:  Solving for p, Initial residual = 9.6679313e-05, Final residual = 4.6122385e-06, No Iterations 29
DICPCG:  Solving for p, Initial residual = 6.3515397e-05, Final residual = 9.105296e-07, No Iterations 163
time step continuity errors : sum local = 5.7883671e-12, global = -1.4461996e-14, cumulative = -8.6917822e-08
ExecutionTime = 40.7 s  ClockTime = 43 s

Time = 3.6

Courant Number mean: 0.00071228204 max: 0.17830778
smoothSolver:  Solving for Ux, Initial residual = 0.00077274441, Final residual = 1.4707406e-07, No Iterations 1
smoothSolver:  Solving for Uy, Initial residual = 0.0011932824, Final residual = 2.1697264e-07, No Iterations 1
smoothSolver:  Solving for Uz, Initial residual = 0.0010654853, Final residual = 1.8640772e-07, No Iterations 1
DICPCG:  Solving for p, Initial residual = 0.011535744, Final residual = 0.00053537927, No Iterations 4
DICPCG:  Solving for p, Initial residual = 0.0018518505, Final residual = 8.7047626e-05, No Iterations 12
DICPCG:  Solving for p, Initial residual = 0.00052133087, Final residual = 2.5129982e-05, No Iterations 17
time step continuity errors : sum local = 1.5691299e-10, global = 7.2971377e-11, cumulative = -8.6844851e-08
DICPCG:  Solving for p, Initial residual = 0.00026421678, Final residual = 1.3162366e-05, No Iterations 139
DICPCG:  Solving for p, Initial residual = 0.00023098741, Final residual = 9.7479756e-06, No Iterations 5
DICPCG:  Solving for p, Initial residual = 5.6373002e-05, Final residual = 9.8047824e-07, No Iterations 55
time step continuity errors : sum local = 6.1177215e-12, global = -1.3647933e-13, cumulative = -8.6844988e-08
ExecutionTime = 41.57 s  ClockTime = 44 s

Time = 3.7

Courant Number mean: 0.00071229191 max: 0.17843465
smoothSolver:  Solving for Ux, Initial residual = 0.00075441515, Final residual = 1.445866e-07, No Iterations 1
smoothSolver:  Solving for Uy, Initial residual = 0.0011657065, Final residual = 2.123508e-07, No Iterations 1
smoothSolver:  Solving for Uz, Initial residual = 0.0010411483, Final residual = 1.8455605e-07, No Iterations 1
DICPCG:  Solving for p, Initial residual = 0.011185095, Final residual = 0.00054709647, No Iterations 4
DICPCG:  Solving for p, Initial residual = 0.0018233838, Final residual = 8.9124202e-05, No Iterations 11
DICPCG:  Solving for p, Initial residual = 0.0004989068, Final residual = 2.3681784e-05, No Iterations 16
time step continuity errors : sum local = 1.4521505e-10, global = 6.1688234e-11, cumulative = -8.6783299e-08
DICPCG:  Solving for p, Initial residual = 0.00024357602, Final residual = 1.1922228e-05, No Iterations 126
DICPCG:  Solving for p, Initial residual = 0.00020667595, Final residual = 8.9595628e-06, No Iterations 5
DICPCG:  Solving for p, Initial residual = 5.0517759e-05, Final residual = 9.9836601e-07, No Iterations 67
time step continuity errors : sum local = 6.1179953e-12, global = -1.7325408e-13, cumulative = -8.6783473e-08
ExecutionTime = 42.45 s  ClockTime = 45 s

Time = 3.8

Courant Number mean: 0.00071230197 max: 0.17855938
smoothSolver:  Solving for Ux, Initial residual = 0.0007363734, Final residual = 1.4136616e-07, No Iterations 1
smoothSolver:  Solving for Uy, Initial residual = 0.0011391649, Final residual = 2.0722241e-07, No Iterations 1
smoothSolver:  Solving for Uz, Initial residual = 0.0010178267, Final residual = 1.814714e-07, No Iterations 1
DICPCG:  Solving for p, Initial residual = 0.010982669, Final residual = 0.00051705477, No Iterations 4
DICPCG:  Solving for p, Initial residual = 0.0017582912, Final residual = 7.999079e-05, No Iterations 12
DICPCG:  Solving for p, Initial residual = 0.00049548987, Final residual = 2.4698964e-05, No Iterations 131
time step continuity errors : sum local = 1.4884305e-10, global = 4.6726623e-13, cumulative = -8.6783005e-08
DICPCG:  Solving for p, Initial residual = 0.00031347677, Final residual = 1.4356896e-05, No Iterations 6
DICPCG:  Solving for p, Initial residual = 8.7579285e-05, Final residual = 4.34313e-06, No Iterations 61
DICPCG:  Solving for p, Initial residual = 9.3463045e-05, Final residual = 9.9298671e-07, No Iterations 150
time step continuity errors : sum local = 5.9796731e-12, global = -1.4979581e-14, cumulative = -8.678302e-08
ExecutionTime = 43.83 s  ClockTime = 46 s

Time = 3.9

Courant Number mean: 0.00071231239 max: 0.17869006
smoothSolver:  Solving for Ux, Initial residual = 0.00071934348, Final residual = 1.3916264e-07, No Iterations 1
smoothSolver:  Solving for Uy, Initial residual = 0.0011137569, Final residual = 2.018279e-07, No Iterations 1
smoothSolver:  Solving for Uz, Initial residual = 0.00099500621, Final residual = 1.798408e-07, No Iterations 1
DICPCG:  Solving for p, Initial residual = 0.010633859, Final residual = 0.0004716453, No Iterations 5
DICPCG:  Solving for p, Initial residual = 0.0017158354, Final residual = 8.0471314e-05, No Iterations 9
DICPCG:  Solving for p, Initial residual = 0.00045645877, Final residual = 2.1886669e-05, No Iterations 123
time step continuity errors : sum local = 1.2968919e-10, global = 4.310925e-13, cumulative = -8.6782589e-08
DICPCG:  Solving for p, Initial residual = 0.00030427476, Final residual = 1.2105143e-05, No Iterations 6
DICPCG:  Solving for p, Initial residual = 8.3310145e-05, Final residual = 4.0385777e-06, No Iterations 28
DICPCG:  Solving for p, Initial residual = 5.1541554e-05, Final residual = 9.2665078e-07, No Iterations 159
time step continuity errors : sum local = 5.4872167e-12, global = -1.112775e-14, cumulative = -8.67826e-08
ExecutionTime = 45.01 s  ClockTime = 48 s

Time = 4

Courant Number mean: 0.00071232299 max: 0.17882283
smoothSolver:  Solving for Ux, Initial residual = 0.00070327997, Final residual = 1.3546078e-07, No Iterations 1
smoothSolver:  Solving for Uy, Initial residual = 0.0010894698, Final residual = 1.9823003e-07, No Iterations 1
smoothSolver:  Solving for Uz, Initial residual = 0.0009730243, Final residual = 1.7814624e-07, No Iterations 1
DICPCG:  Solving for p, Initial residual = 0.010485091, Final residual = 0.00039455411, No Iterations 6
DICPCG:  Solving for p, Initial residual = 0.0017690609, Final residual = 8.5311687e-05, No Iterations 9
DICPCG:  Solving for p, Initial residual = 0.00049894561, Final residual = 2.3436291e-05, No Iterations 33
time step continuity errors : sum local = 1.3661115e-10, global = -8.7657972e-12, cumulative = -8.6791366e-08
DICPCG:  Solving for p, Initial residual = 0.00034634868, Final residual = 1.6142032e-05, No Iterations 7
DICPCG:  Solving for p, Initial residual = 9.3321774e-05, Final residual = 4.6355296e-06, No Iterations 145
DICPCG:  Solving for p, Initial residual = 7.4711675e-05, Final residual = 9.6028918e-07, No Iterations 61
time step continuity errors : sum local = 5.597647e-12, global = 3.0340632e-13, cumulative = -8.6791063e-08
ExecutionTime = 46.23 s  ClockTime = 49 s

Time = 4.1

Courant Number mean: 0.00071233392 max: 0.17896827
smoothSolver:  Solving for Ux, Initial residual = 0.00068776353, Final residual = 1.3210004e-07, No Iterations 1
smoothSolver:  Solving for Uy, Initial residual = 0.0010660632, Final residual = 1.9513568e-07, No Iterations 1
smoothSolver:  Solving for Uz, Initial residual = 0.00095041573, Final residual = 1.7636834e-07, No Iterations 1
DICPCG:  Solving for p, Initial residual = 0.010330252, Final residual = 0.0004824797, No Iterations 6
DICPCG:  Solving for p, Initial residual = 0.0019151208, Final residual = 9.2664269e-05, No Iterations 9
DICPCG:  Solving for p, Initial residual = 0.00057401175, Final residual = 2.8117689e-05, No Iterations 156
time step continuity errors : sum local = 1.6141101e-10, global = -7.8402901e-14, cumulative = -8.6791141e-08
DICPCG:  Solving for p, Initial residual = 0.00042049243, Final residual = 1.9152481e-05, No Iterations 7
DICPCG:  Solving for p, Initial residual = 0.0001183805, Final residual = 5.6454149e-06, No Iterations 16
DICPCG:  Solving for p, Initial residual = 4.8074805e-05, Final residual = 9.2771226e-07, No Iterations 162
time step continuity errors : sum local = 5.3294194e-12, global = 2.4009301e-14, cumulative = -8.6791117e-08
ExecutionTime = 47.39 s  ClockTime = 50 s

Time = 4.2

Courant Number mean: 0.00071234609 max: 0.17913565
smoothSolver:  Solving for Ux, Initial residual = 0.00067300244, Final residual = 1.2940936e-07, No Iterations 1
smoothSolver:  Solving for Uy, Initial residual = 0.00104411, Final residual = 1.9264533e-07, No Iterations 1
smoothSolver:  Solving for Uz, Initial residual = 0.00092806586, Final residual = 1.7422356e-07, No Iterations 1
DICPCG:  Solving for p, Initial residual = 0.01000407, Final residual = 0.00045745585, No Iterations 6
DICPCG:  Solving for p, Initial residual = 0.0018159191, Final residual = 8.9384498e-05, No Iterations 9
DICPCG:  Solving for p, Initial residual = 0.00053970643, Final residual = 2.6886631e-05, No Iterations 127
time step continuity errors : sum local = 1.521977e-10, global = -7.6415834e-13, cumulative = -8.6791881e-08
DICPCG:  Solving for p, Initial residual = 0.00035392323, Final residual = 1.6021533e-05, No Iterations 8
DICPCG:  Solving for p, Initial residual = 0.00010460722, Final residual = 5.2289109e-06, No Iterations 47
DICPCG:  Solving for p, Initial residual = 9.0788546e-05, Final residual = 8.6073209e-07, No Iterations 162
time step continuity errors : sum local = 4.8746225e-12, global = 2.5496567e-15, cumulative = -8.6791879e-08
ExecutionTime = 48.57 s  ClockTime = 51 s

Time = 4.3

Courant Number mean: 0.00071235942 max: 0.17932171
smoothSolver:  Solving for Ux, Initial residual = 0.00065893301, Final residual = 1.2643341e-07, No Iterations 1
smoothSolver:  Solving for Uy, Initial residual = 0.0010228314, Final residual = 1.902792e-07, No Iterations 1
smoothSolver:  Solving for Uz, Initial residual = 0.00090683079, Final residual = 1.7221674e-07, No Iterations 1
DICPCG:  Solving for p, Initial residual = 0.009755875, Final residual = 0.00042678963, No Iterations 6
DICPCG:  Solving for p, Initial residual = 0.001734998, Final residual = 7.9479863e-05, No Iterations 10
DICPCG:  Solving for p, Initial residual = 0.00050453309, Final residual = 2.4157508e-05, No Iterations 15
time step continuity errors : sum local = 1.3488663e-10, global = -2.6346512e-11, cumulative = -8.6818225e-08
DICPCG:  Solving for p, Initial residual = 0.00025003178, Final residual = 1.1490698e-05, No Iterations 122
DICPCG:  Solving for p, Initial residual = 0.00013506193, Final residual = 6.3557972e-06, No Iterations 6
DICPCG:  Solving for p, Initial residual = 3.6097607e-05, Final residual = 9.6990987e-07, No Iterations 76
time step continuity errors : sum local = 5.4167427e-12, global = -1.301531e-12, cumulative = -8.6819527e-08
ExecutionTime = 49.44 s  ClockTime = 52 s

Time = 4.4

Courant Number mean: 0.00071237341 max: 0.17952386
smoothSolver:  Solving for Ux, Initial residual = 0.00064550407, Final residual = 1.2387309e-07, No Iterations 1
smoothSolver:  Solving for Uy, Initial residual = 0.0010025163, Final residual = 1.8874054e-07, No Iterations 1
smoothSolver:  Solving for Uz, Initial residual = 0.00088681508, Final residual = 1.701602e-07, No Iterations 1
DICPCG:  Solving for p, Initial residual = 0.0096118927, Final residual = 0.00040794211, No Iterations 6
DICPCG:  Solving for p, Initial residual = 0.0016780653, Final residual = 7.9764839e-05, No Iterations 10
DICPCG:  Solving for p, Initial residual = 0.000491633, Final residual = 2.1665244e-05, No Iterations 16
time step continuity errors : sum local = 1.1934196e-10, global = -2.6822039e-11, cumulative = -8.6846349e-08
DICPCG:  Solving for p, Initial residual = 0.00024545968, Final residual = 1.2100475e-05, No Iterations 150
DICPCG:  Solving for p, Initial residual = 0.00014550143, Final residual = 6.9694183e-06, No Iterations 6
DICPCG:  Solving for p, Initial residual = 3.7725649e-05, Final residual = 9.9568164e-07, No Iterations 61
time step continuity errors : sum local = 5.485878e-12, global = -1.102159e-12, cumulative = -8.6847451e-08
ExecutionTime = 50.33 s  ClockTime = 53 s

Time = 4.5

Courant Number mean: 0.00071238768 max: 0.17974301
smoothSolver:  Solving for Ux, Initial residual = 0.00063283457, Final residual = 1.2042426e-07, No Iterations 1
smoothSolver:  Solving for Uy, Initial residual = 0.00098295511, Final residual = 1.8669933e-07, No Iterations 1
smoothSolver:  Solving for Uz, Initial residual = 0.00086747378, Final residual = 1.6706479e-07, No Iterations 1
DICPCG:  Solving for p, Initial residual = 0.0093314203, Final residual = 0.0003938457, No Iterations 6
DICPCG:  Solving for p, Initial residual = 0.0016191713, Final residual = 7.8021372e-05, No Iterations 10
DICPCG:  Solving for p, Initial residual = 0.00046960492, Final residual = 2.2948539e-05, No Iterations 15
time step continuity errors : sum local = 1.2477329e-10, global = -1.5052886e-11, cumulative = -8.6862504e-08
DICPCG:  Solving for p, Initial residual = 0.00023541237, Final residual = 1.1525565e-05, No Iterations 28
DICPCG:  Solving for p, Initial residual = 0.00012289458, Final residual = 6.0870553e-06, No Iterations 16
DICPCG:  Solving for p, Initial residual = 4.5602783e-05, Final residual = 9.4151952e-07, No Iterations 155
time step continuity errors : sum local = 5.1188916e-12, global = -1.1510459e-15, cumulative = -8.6862505e-08
ExecutionTime = 51.52 s  ClockTime = 54 s

Time = 4.6

Courant Number mean: 0.00071240179 max: 0.17997649
smoothSolver:  Solving for Ux, Initial residual = 0.000620398, Final residual = 1.173535e-07, No Iterations 1
smoothSolver:  Solving for Uy, Initial residual = 0.00096366151, Final residual = 1.837514e-07, No Iterations 1
smoothSolver:  Solving for Uz, Initial residual = 0.00084956357, Final residual = 1.6522249e-07, No Iterations 1
DICPCG:  Solving for p, Initial residual = 0.0090810413, Final residual = 0.00036744774, No Iterations 6
DICPCG:  Solving for p, Initial residual = 0.0015789164, Final residual = 7.8907108e-05, No Iterations 9
DICPCG:  Solving for p, Initial residual = 0.00045229878, Final residual = 2.2401327e-05, No Iterations 17
time step continuity errors : sum local = 1.2028533e-10, global = -1.982426e-11, cumulative = -8.6882329e-08
DICPCG:  Solving for p, Initial residual = 0.00023966545, Final residual = 1.1801509e-05, No Iterations 32
DICPCG:  Solving for p, Initial residual = 0.0001431844, Final residual = 7.0572256e-06, No Iterations 143
DICPCG:  Solving for p, Initial residual = 8.9533151e-05, Final residual = 9.5168989e-07, No Iterations 48
time step continuity errors : sum local = 5.1108209e-12, global = 8.3673153e-13, cumulative = -8.6881493e-08
ExecutionTime = 52.45 s  ClockTime = 55 s

Time = 4.7

Courant Number mean: 0.00071241593 max: 0.18022042
smoothSolver:  Solving for Ux, Initial residual = 0.00060856657, Final residual = 1.1464486e-07, No Iterations 1
smoothSolver:  Solving for Uy, Initial residual = 0.00094529411, Final residual = 1.8331951e-07, No Iterations 1
smoothSolver:  Solving for Uz, Initial residual = 0.00083247415, Final residual = 1.6298918e-07, No Iterations 1
DICPCG:  Solving for p, Initial residual = 0.0088699595, Final residual = 0.00035150281, No Iterations 6
DICPCG:  Solving for p, Initial residual = 0.0015018039, Final residual = 7.3455609e-05, No Iterations 10
DICPCG:  Solving for p, Initial residual = 0.00043444947, Final residual = 2.0062819e-05, No Iterations 16
time step continuity errors : sum local = 1.0642722e-10, global = -1.5546257e-11, cumulative = -8.6897039e-08
DICPCG:  Solving for p, Initial residual = 0.0002210353, Final residual = 1.0789987e-05, No Iterations 29
DICPCG:  Solving for p, Initial residual = 0.00012334461, Final residual = 5.7672451e-06, No Iterations 133
DICPCG:  Solving for p, Initial residual = 7.3021492e-05, Final residual = 9.7000956e-07, No Iterations 53
time step continuity errors : sum local = 5.1461042e-12, global = 6.6342577e-13, cumulative = -8.6896375e-08
ExecutionTime = 53.37 s  ClockTime = 56 s

Time = 4.8

Courant Number mean: 0.00071243044 max: 0.18047237
smoothSolver:  Solving for Ux, Initial residual = 0.00059742947, Final residual = 1.1233496e-07, No Iterations 1
smoothSolver:  Solving for Uy, Initial residual = 0.00092759451, Final residual = 1.8354361e-07, No Iterations 1
smoothSolver:  Solving for Uz, Initial residual = 0.00081605691, Final residual = 1.6117863e-07, No Iterations 1
DICPCG:  Solving for p, Initial residual = 0.0087284859, Final residual = 0.00034340174, No Iterations 6
DICPCG:  Solving for p, Initial residual = 0.001490188, Final residual = 7.3882603e-05, No Iterations 9
DICPCG:  Solving for p, Initial residual = 0.00043097723, Final residual = 2.1269833e-05, No Iterations 16
time step continuity errors : sum local = 1.1151737e-10, global = -2.2043275e-11, cumulative = -8.6918419e-08
DICPCG:  Solving for p, Initial residual = 0.00022490818, Final residual = 1.0440531e-05, No Iterations 122
DICPCG:  Solving for p, Initial residual = 0.00014669035, Final residual = 6.0805531e-06, No Iterations 6
DICPCG:  Solving for p, Initial residual = 3.6850546e-05, Final residual = 9.7097858e-07, No Iterations 71
time step continuity errors : sum local = 5.0916842e-12, global = -8.4006921e-13, cumulative = -8.6919259e-08
ExecutionTime = 54.23 s  ClockTime = 57 s

Time = 4.9

Courant Number mean: 0.00071244556 max: 0.18073086
smoothSolver:  Solving for Ux, Initial residual = 0.00058681651, Final residual = 1.1044924e-07, No Iterations 1
smoothSolver:  Solving for Uy, Initial residual = 0.00091022105, Final residual = 1.8268075e-07, No Iterations 1
smoothSolver:  Solving for Uz, Initial residual = 0.00079979588, Final residual = 1.5931088e-07, No Iterations 1
DICPCG:  Solving for p, Initial residual = 0.0085891985, Final residual = 0.0003411512, No Iterations 6
DICPCG:  Solving for p, Initial residual = 0.0014692351, Final residual = 7.0869296e-05, No Iterations 10
DICPCG:  Solving for p, Initial residual = 0.00042277341, Final residual = 2.0329531e-05, No Iterations 16
time step continuity errors : sum local = 1.0537484e-10, global = -2.6732222e-11, cumulative = -8.6945991e-08
DICPCG:  Solving for p, Initial residual = 0.00021768242, Final residual = 1.0574808e-05, No Iterations 121
DICPCG:  Solving for p, Initial residual = 0.0001371841, Final residual = 6.8468974e-06, No Iterations 5
DICPCG:  Solving for p, Initial residual = 3.4475558e-05, Final residual = 9.255604e-07, No Iterations 45
time step continuity errors : sum local = 4.7985944e-12, global = -9.0069712e-13, cumulative = -8.6946892e-08
ExecutionTime = 55.12 s  ClockTime = 58 s

Time = 5

Courant Number mean: 0.00071246105 max: 0.18098798
smoothSolver:  Solving for Ux, Initial residual = 0.00057645819, Final residual = 1.0864804e-07, No Iterations 1
smoothSolver:  Solving for Uy, Initial residual = 0.00089386719, Final residual = 1.8256656e-07, No Iterations 1
smoothSolver:  Solving for Uz, Initial residual = 0.00078490877, Final residual = 1.5689051e-07, No Iterations 1
DICPCG:  Solving for p, Initial residual = 0.0083775891, Final residual = 0.00033322309, No Iterations 6
DICPCG:  Solving for p, Initial residual = 0.001424036, Final residual = 6.8163682e-05, No Iterations 11
DICPCG:  Solving for p, Initial residual = 0.00041347452, Final residual = 1.8479849e-05, No Iterations 16
time step continuity errors : sum local = 9.4740549e-11, global = -1.5536801e-11, cumulative = -8.6962428e-08
DICPCG:  Solving for p, Initial residual = 0.00020719697, Final residual = 9.4446837e-06, No Iterations 29
DICPCG:  Solving for p, Initial residual = 9.9852305e-05, Final residual = 4.8815353e-06, No Iterations 106
DICPCG:  Solving for p, Initial residual = 6.606996e-05, Final residual = 9.2126194e-07, No Iterations 55
time step continuity errors : sum local = 4.7235656e-12, global = 7.2641447e-13, cumulative = -8.6961702e-08
ExecutionTime = 56.18 s  ClockTime = 59 s

Time = 5.1

Courant Number mean: 0.00071247682 max: 0.18124498
smoothSolver:  Solving for Ux, Initial residual = 0.00056653262, Final residual = 1.0728776e-07, No Iterations 1
smoothSolver:  Solving for Uy, Initial residual = 0.00087835666, Final residual = 1.8265226e-07, No Iterations 1
smoothSolver:  Solving for Uz, Initial residual = 0.00077083438, Final residual = 1.5382237e-07, No Iterations 1
DICPCG:  Solving for p, Initial residual = 0.0080918389, Final residual = 0.00030210137, No Iterations 6
DICPCG:  Solving for p, Initial residual = 0.0013554643, Final residual = 6.3443096e-05, No Iterations 11
DICPCG:  Solving for p, Initial residual = 0.00039217895, Final residual = 1.9261503e-05, No Iterations 15
time step continuity errors : sum local = 9.7709511e-11, global = 2.6899182e-12, cumulative = -8.6959012e-08
DICPCG:  Solving for p, Initial residual = 0.00019535607, Final residual = 8.7940007e-06, No Iterations 9
DICPCG:  Solving for p, Initial residual = 6.301213e-05, Final residual = 3.0336287e-06, No Iterations 37
DICPCG:  Solving for p, Initial residual = 4.7152073e-05, Final residual = 9.9755722e-07, No Iterations 150
time step continuity errors : sum local = 5.0603249e-12, global = 2.0780711e-15, cumulative = -8.695901e-08
ExecutionTime = 57.03 s  ClockTime = 60 s

Time = 5.2

Courant Number mean: 0.00071249248 max: 0.18150266
smoothSolver:  Solving for Ux, Initial residual = 0.00055703731, Final residual = 1.0432393e-07, No Iterations 1
smoothSolver:  Solving for Uy, Initial residual = 0.00086323534, Final residual = 1.8014889e-07, No Iterations 1
smoothSolver:  Solving for Uz, Initial residual = 0.00075730035, Final residual = 1.495906e-07, No Iterations 1
DICPCG:  Solving for p, Initial residual = 0.0079810814, Final residual = 0.00038363779, No Iterations 4
DICPCG:  Solving for p, Initial residual = 0.0013329421, Final residual = 6.5045625e-05, No Iterations 13
DICPCG:  Solving for p, Initial residual = 0.00040326653, Final residual = 1.8511551e-05, No Iterations 15
time step continuity errors : sum local = 9.2937678e-11, global = 8.1575155e-12, cumulative = -8.6950853e-08
DICPCG:  Solving for p, Initial residual = 0.0001966247, Final residual = 9.0790776e-06, No Iterations 8
DICPCG:  Solving for p, Initial residual = 6.2683097e-05, Final residual = 2.9176397e-06, No Iterations 157
DICPCG:  Solving for p, Initial residual = 6.2917128e-05, Final residual = 9.4310859e-07, No Iterations 20
time step continuity errors : sum local = 4.7344235e-12, global = -2.1783022e-13, cumulative = -8.695107e-08
ExecutionTime = 57.85 s  ClockTime = 61 s

Time = 5.3

Courant Number mean: 0.00071250854 max: 0.18176149
smoothSolver:  Solving for Ux, Initial residual = 0.00054792834, Final residual = 1.0311171e-07, No Iterations 1
smoothSolver:  Solving for Uy, Initial residual = 0.00084830175, Final residual = 1.7648807e-07, No Iterations 1
smoothSolver:  Solving for Uz, Initial residual = 0.00074538926, Final residual = 1.4568255e-07, No Iterations 1
DICPCG:  Solving for p, Initial residual = 0.0079596693, Final residual = 0.00030949241, No Iterations 4
DICPCG:  Solving for p, Initial residual = 0.0013100898, Final residual = 6.392682e-05, No Iterations 13
DICPCG:  Solving for p, Initial residual = 0.00039698764, Final residual = 1.8904422e-05, No Iterations 15
time step continuity errors : sum local = 9.3937223e-11, global = 2.2291662e-11, cumulative = -8.6928779e-08
DICPCG:  Solving for p, Initial residual = 0.00019713434, Final residual = 9.4852309e-06, No Iterations 8
DICPCG:  Solving for p, Initial residual = 6.193049e-05, Final residual = 2.981197e-06, No Iterations 148
DICPCG:  Solving for p, Initial residual = 9.2980668e-05, Final residual = 9.5647892e-07, No Iterations 21
time step continuity errors : sum local = 4.751645e-12, global = -8.6978742e-13, cumulative = -8.6929648e-08
ExecutionTime = 58.65 s  ClockTime = 62 s

Time = 5.4

Courant Number mean: 0.00071252492 max: 0.18202181
smoothSolver:  Solving for Ux, Initial residual = 0.00053927748, Final residual = 1.015094e-07, No Iterations 1
smoothSolver:  Solving for Uy, Initial residual = 0.00083400475, Final residual = 1.7239426e-07, No Iterations 1
smoothSolver:  Solving for Uz, Initial residual = 0.00073427089, Final residual = 1.4195483e-07, No Iterations 1
DICPCG:  Solving for p, Initial residual = 0.0076484781, Final residual = 0.00032752168, No Iterations 4
DICPCG:  Solving for p, Initial residual = 0.0012558378, Final residual = 5.7153634e-05, No Iterations 14
DICPCG:  Solving for p, Initial residual = 0.00038517417, Final residual = 1.924172e-05, No Iterations 12
time step continuity errors : sum local = 9.4682828e-11, global = 1.9988658e-11, cumulative = -8.690966e-08
DICPCG:  Solving for p, Initial residual = 0.00018155761, Final residual = 9.0752582e-06, No Iterations 16
DICPCG:  Solving for p, Initial residual = 7.6422642e-05, Final residual = 3.795343e-06, No Iterations 135
DICPCG:  Solving for p, Initial residual = 8.8488134e-05, Final residual = 9.688662e-07, No Iterations 37
time step continuity errors : sum local = 4.7664663e-12, global = -7.7709775e-13, cumulative = -8.6910437e-08
ExecutionTime = 59.46 s  ClockTime = 63 s

Time = 5.5

Courant Number mean: 0.00071254118 max: 0.18228035
smoothSolver:  Solving for Ux, Initial residual = 0.00053085908, Final residual = 9.9787668e-08, No Iterations 1
smoothSolver:  Solving for Uy, Initial residual = 0.00082031667, Final residual = 1.6820459e-07, No Iterations 1
smoothSolver:  Solving for Uz, Initial residual = 0.00072374834, Final residual = 1.3815691e-07, No Iterations 1
DICPCG:  Solving for p, Initial residual = 0.0075602422, Final residual = 0.000306054, No Iterations 4
DICPCG:  Solving for p, Initial residual = 0.0012189292, Final residual = 5.1673348e-05, No Iterations 14
DICPCG:  Solving for p, Initial residual = 0.00037012392, Final residual = 1.8369525e-05, No Iterations 17
time step continuity errors : sum local = 8.9523019e-11, global = 3.1573859e-11, cumulative = -8.6878863e-08
DICPCG:  Solving for p, Initial residual = 0.00018746119, Final residual = 9.115554e-06, No Iterations 141
DICPCG:  Solving for p, Initial residual = 0.00013377924, Final residual = 5.9322148e-06, No Iterations 6
DICPCG:  Solving for p, Initial residual = 3.488457e-05, Final residual = 9.656014e-07, No Iterations 39
time step continuity errors : sum local = 4.7040212e-12, global = -4.102049e-13, cumulative = -8.6879273e-08
ExecutionTime = 60.51 s  ClockTime = 64 s

Time = 5.6

Courant Number mean: 0.00071255778 max: 0.18253721
smoothSolver:  Solving for Ux, Initial residual = 0.00052281496, Final residual = 9.8215555e-08, No Iterations 1
smoothSolver:  Solving for Uy, Initial residual = 0.00080709949, Final residual = 1.644336e-07, No Iterations 1
smoothSolver:  Solving for Uz, Initial residual = 0.00071364772, Final residual = 1.3535974e-07, No Iterations 1
DICPCG:  Solving for p, Initial residual = 0.0073778045, Final residual = 0.00036077557, No Iterations 3
DICPCG:  Solving for p, Initial residual = 0.0011734374, Final residual = 5.3073074e-05, No Iterations 15
DICPCG:  Solving for p, Initial residual = 0.00037028265, Final residual = 1.7448553e-05, No Iterations 146
time step continuity errors : sum local = 8.4217952e-11, global = -1.0852763e-14, cumulative = -8.6879284e-08
DICPCG:  Solving for p, Initial residual = 0.00023813475, Final residual = 1.1266528e-05, No Iterations 5
DICPCG:  Solving for p, Initial residual = 6.2015474e-05, Final residual = 3.0239473e-06, No Iterations 28
DICPCG:  Solving for p, Initial residual = 3.9648408e-05, Final residual = 9.6645349e-07, No Iterations 155
time step continuity errors : sum local = 4.6623762e-12, global = -8.1042016e-15, cumulative = -8.6879292e-08
ExecutionTime = 61.67 s  ClockTime = 65 s

Time = 5.7

Courant Number mean: 0.00071257453 max: 0.18279422
smoothSolver:  Solving for Ux, Initial residual = 0.00051499737, Final residual = 9.6155086e-08, No Iterations 1
smoothSolver:  Solving for Uy, Initial residual = 0.00079453396, Final residual = 1.6056009e-07, No Iterations 1
smoothSolver:  Solving for Uz, Initial residual = 0.00070383875, Final residual = 1.3242951e-07, No Iterations 1
DICPCG:  Solving for p, Initial residual = 0.0071665269, Final residual = 0.00026122987, No Iterations 4
DICPCG:  Solving for p, Initial residual = 0.0011461659, Final residual = 5.3734294e-05, No Iterations 14
DICPCG:  Solving for p, Initial residual = 0.00034924896, Final residual = 1.6112103e-05, No Iterations 17
time step continuity errors : sum local = 7.7039182e-11, global = 2.7397426e-11, cumulative = -8.6851895e-08
DICPCG:  Solving for p, Initial residual = 0.0001732904, Final residual = 7.9751802e-06, No Iterations 133
DICPCG:  Solving for p, Initial residual = 0.00012137731, Final residual = 5.6064819e-06, No Iterations 6
DICPCG:  Solving for p, Initial residual = 3.0684564e-05, Final residual = 9.9027824e-07, No Iterations 39
time step continuity errors : sum local = 4.733393e-12, global = -1.574865e-13, cumulative = -8.6852052e-08
ExecutionTime = 62.48 s  ClockTime = 66 s

Time = 5.8

Courant Number mean: 0.00071259092 max: 0.18305192
smoothSolver:  Solving for Ux, Initial residual = 0.00050739829, Final residual = 9.3791983e-08, No Iterations 1
smoothSolver:  Solving for Uy, Initial residual = 0.00078251922, Final residual = 1.5745078e-07, No Iterations 1
smoothSolver:  Solving for Uz, Initial residual = 0.00069406457, Final residual = 1.291057e-07, No Iterations 1
DICPCG:  Solving for p, Initial residual = 0.0070226423, Final residual = 0.00025027888, No Iterations 4
DICPCG:  Solving for p, Initial residual = 0.0011136379, Final residual = 5.3289062e-05, No Iterations 14
DICPCG:  Solving for p, Initial residual = 0.00034313453, Final residual = 1.7033258e-05, No Iterations 21
time step continuity errors : sum local = 8.0707502e-11, global = 3.0585444e-11, cumulative = -8.6821467e-08
DICPCG:  Solving for p, Initial residual = 0.0001853056, Final residual = 9.2473662e-06, No Iterations 134
DICPCG:  Solving for p, Initial residual = 0.00014035343, Final residual = 6.5387162e-06, No Iterations 6
DICPCG:  Solving for p, Initial residual = 3.4876982e-05, Final residual = 9.713444e-07, No Iterations 66
time step continuity errors : sum local = 4.6007195e-12, global = -1.2788375e-13, cumulative = -8.6821595e-08
ExecutionTime = 63.37 s  ClockTime = 67 s

Time = 5.9

Courant Number mean: 0.00071260703 max: 0.18330893
smoothSolver:  Solving for Ux, Initial residual = 0.00049997748, Final residual = 9.1079693e-08, No Iterations 1
smoothSolver:  Solving for Uy, Initial residual = 0.00077113391, Final residual = 1.538979e-07, No Iterations 1
smoothSolver:  Solving for Uz, Initial residual = 0.0006848053, Final residual = 1.2520852e-07, No Iterations 1
DICPCG:  Solving for p, Initial residual = 0.006960875, Final residual = 0.00032065834, No Iterations 3
DICPCG:  Solving for p, Initial residual = 0.0011039495, Final residual = 5.0753648e-05, No Iterations 15
DICPCG:  Solving for p, Initial residual = 0.00035476955, Final residual = 1.7094696e-05, No Iterations 129
time step continuity errors : sum local = 8.0261096e-11, global = 2.07209e-13, cumulative = -8.6821388e-08
DICPCG:  Solving for p, Initial residual = 0.00023602678, Final residual = 1.0553113e-05, No Iterations 6
DICPCG:  Solving for p, Initial residual = 6.3346534e-05, Final residual = 3.1626276e-06, No Iterations 59
DICPCG:  Solving for p, Initial residual = 6.166425e-05, Final residual = 9.8620026e-07, No Iterations 32
time step continuity errors : sum local = 4.6283368e-12, global = -7.903545e-13, cumulative = -8.6822178e-08
ExecutionTime = 64.27 s  ClockTime = 68 s

Time = 6

Courant Number mean: 0.00071262278 max: 0.18356753
smoothSolver:  Solving for Ux, Initial residual = 0.00049292049, Final residual = 8.9800034e-08, No Iterations 1
smoothSolver:  Solving for Uy, Initial residual = 0.00076008435, Final residual = 1.5067978e-07, No Iterations 1
smoothSolver:  Solving for Uz, Initial residual = 0.00067649825, Final residual = 1.2326022e-07, No Iterations 1
DICPCG:  Solving for p, Initial residual = 0.0067817612, Final residual = 0.00024511518, No Iterations 4
DICPCG:  Solving for p, Initial residual = 0.0010800418, Final residual = 5.0431017e-05, No Iterations 14
DICPCG:  Solving for p, Initial residual = 0.00032895147, Final residual = 1.629681e-05, No Iterations 12
time step continuity errors : sum local = 7.5851683e-11, global = 1.3767283e-11, cumulative = -8.6808411e-08
DICPCG:  Solving for p, Initial residual = 0.00015439081, Final residual = 7.6674247e-06, No Iterations 16
DICPCG:  Solving for p, Initial residual = 6.3518084e-05, Final residual = 3.0308842e-06, No Iterations 147
DICPCG:  Solving for p, Initial residual = 6.9467582e-05, Final residual = 9.6002124e-07, No Iterations 20
time step continuity errors : sum local = 4.4676309e-12, global = -5.3444803e-13, cumulative = -8.6808945e-08
ExecutionTime = 65.28 s  ClockTime = 69 s

Time = 6.1

Courant Number mean: 0.00071263844 max: 0.18382652
smoothSolver:  Solving for Ux, Initial residual = 0.00048618562, Final residual = 8.8653836e-08, No Iterations 1
smoothSolver:  Solving for Uy, Initial residual = 0.00074941056, Final residual = 1.4657972e-07, No Iterations 1
smoothSolver:  Solving for Uz, Initial residual = 0.00066779864, Final residual = 1.2065311e-07, No Iterations 1
DICPCG:  Solving for p, Initial residual = 0.0066088682, Final residual = 0.00025344588, No Iterations 4
DICPCG:  Solving for p, Initial residual = 0.0010678472, Final residual = 5.1711515e-05, No Iterations 14
DICPCG:  Solving for p, Initial residual = 0.00033797188, Final residual = 1.6667303e-05, No Iterations 15
time step continuity errors : sum local = 7.6942648e-11, global = 9.5853855e-12, cumulative = -8.679936e-08
DICPCG:  Solving for p, Initial residual = 0.00016675997, Final residual = 8.2657358e-06, No Iterations 9
[...]
DICPCG:  Solving for p, Initial residual = 1.2122713e-05, Final residual = 9.3426529e-07, No Iterations 143
DICPCG:  Solving for p, Initial residual = 1.4353643e-05, Final residual = 9.2855437e-07, No Iterations 4
time step continuity errors : sum local = 2.9757814e-12, global = -1.1256633e-14, cumulative = -8.680958e-08
ExecutionTime = 170.17 s  ClockTime = 178 s

Time = 18.6

Courant Number mean: 0.0007141644 max: 0.19562115
smoothSolver:  Solving for Ux, Initial residual = 0.00021502026, Final residual = 2.2964961e-08, No Iterations 1
smoothSolver:  Solving for Uy, Initial residual = 0.0003386089, Final residual = 4.0908854e-08, No Iterations 1
smoothSolver:  Solving for Uz, Initial residual = 0.00033390322, Final residual = 3.9206997e-08, No Iterations 1
DICPCG:  Solving for p, Initial residual = 0.00151096, Final residual = 5.6938019e-05, No Iterations 3
DICPCG:  Solving for p, Initial residual = 0.00023342179, Final residual = 9.73722e-06, No Iterations 9
DICPCG:  Solving for p, Initial residual = 6.6419731e-05, Final residual = 2.9809662e-06, No Iterations 15
time step continuity errors : sum local = 9.5426945e-12, global = 2.5737187e-12, cumulative = -8.6807006e-08
DICPCG:  Solving for p, Initial residual = 3.3687626e-05, Final residual = 1.5426736e-06, No Iterations 152
DICPCG:  Solving for p, Initial residual = 2.4339924e-05, Final residual = 1.2036722e-06, No Iterations 5
DICPCG:  Solving for p, Initial residual = 6.4140459e-06, Final residual = 7.1693072e-07, No Iterations 3
time step continuity errors : sum local = 2.2949393e-12, global = 1.0313033e-14, cumulative = -8.6806996e-08
ExecutionTime = 170.93 s  ClockTime = 179 s

Time = 18.7

Courant Number mean: 0.00071417835 max: 0.19564329
smoothSolver:  Solving for Ux, Initial residual = 0.00021426379, Final residual = 2.2751989e-08, No Iterations 1
smoothSolver:  Solving for Uy, Initial residual = 0.00033749551, Final residual = 4.0793365e-08, No Iterations 1
smoothSolver:  Solving for Uz, Initial residual = 0.00033302975, Final residual = 3.9033235e-08, No Iterations 1
DICPCG:  Solving for p, Initial residual = 0.0014576036, Final residual = 5.0223769e-05, No Iterations 3
DICPCG:  Solving for p, Initial residual = 0.00021613095, Final residual = 1.0589809e-05, No Iterations 8
DICPCG:  Solving for p, Initial residual = 5.9937316e-05, Final residual = 2.9588378e-06, No Iterations 155
time step continuity errors : sum local = 9.4612174e-12, global = -2.0062501e-14, cumulative = -8.6807016e-08
DICPCG:  Solving for p, Initial residual = 4.6691782e-05, Final residual = 2.0804396e-06, No Iterations 6
DICPCG:  Solving for p, Initial residual = 1.3462746e-05, Final residual = 9.8257958e-07, No Iterations 6
DICPCG:  Solving for p, Initial residual = 4.414759e-06, Final residual = 9.1560096e-07, No Iterations 3
time step continuity errors : sum local = 2.9274979e-12, global = -1.0627768e-13, cumulative = -8.6807122e-08
ExecutionTime = 171.66 s  ClockTime = 180 s

Time = 18.8

Courant Number mean: 0.00071419231 max: 0.19566492
smoothSolver:  Solving for Ux, Initial residual = 0.000213482, Final residual = 2.2517508e-08, No Iterations 1
smoothSolver:  Solving for Uy, Initial residual = 0.00033627562, Final residual = 4.0676368e-08, No Iterations 1
smoothSolver:  Solving for Uz, Initial residual = 0.00033217495, Final residual = 3.8912572e-08, No Iterations 1
DICPCG:  Solving for p, Initial residual = 0.0014638747, Final residual = 5.1682479e-05, No Iterations 3
DICPCG:  Solving for p, Initial residual = 0.00022044786, Final residual = 9.7908543e-06, No Iterations 8
DICPCG:  Solving for p, Initial residual = 5.8986179e-05, Final residual = 2.8014564e-06, No Iterations 161
time step continuity errors : sum local = 8.9479734e-12, global = 2.3499763e-15, cumulative = -8.680712e-08
DICPCG:  Solving for p, Initial residual = 5.2128862e-05, Final residual = 1.9885924e-06, No Iterations 6
DICPCG:  Solving for p, Initial residual = 1.4065276e-05, Final residual = 9.9818381e-07, No Iterations 5
DICPCG:  Solving for p, Initial residual = 4.2427705e-06, Final residual = 9.6557186e-07, No Iterations 2
time step continuity errors : sum local = 3.0838091e-12, global = -1.1292611e-13, cumulative = -8.6807233e-08
ExecutionTime = 172.41 s  ClockTime = 181 s

Time = 18.9

Courant Number mean: 0.00071420619 max: 0.19568609
smoothSolver:  Solving for Ux, Initial residual = 0.00021264635, Final residual = 2.2281139e-08, No Iterations 1
smoothSolver:  Solving for Uy, Initial residual = 0.00033502057, Final residual = 4.0526274e-08, No Iterations 1
smoothSolver:  Solving for Uz, Initial residual = 0.00033132802, Final residual = 3.8735873e-08, No Iterations 1
DICPCG:  Solving for p, Initial residual = 0.0014381536, Final residual = 5.0336917e-05, No Iterations 3
DICPCG:  Solving for p, Initial residual = 0.00021360366, Final residual = 9.8105405e-06, No Iterations 8
DICPCG:  Solving for p, Initial residual = 5.8432434e-05, Final residual = 2.7517391e-06, No Iterations 160
time step continuity errors : sum local = 8.7800394e-12, global = -2.9252457e-15, cumulative = -8.6807236e-08
DICPCG:  Solving for p, Initial residual = 4.9695507e-05, Final residual = 2.0574163e-06, No Iterations 6
DICPCG:  Solving for p, Initial residual = 1.3617273e-05, Final residual = 8.5060223e-07, No Iterations 6
DICPCG:  Solving for p, Initial residual = 4.2709174e-06, Final residual = 9.4710119e-07, No Iterations 2
time step continuity errors : sum local = 3.0216717e-12, global = -1.0924043e-13, cumulative = -8.6807345e-08
ExecutionTime = 173.15 s  ClockTime = 181 s

Time = 19

Courant Number mean: 0.00071422015 max: 0.19570677
smoothSolver:  Solving for Ux, Initial residual = 0.00021186738, Final residual = 2.2046651e-08, No Iterations 1
smoothSolver:  Solving for Uy, Initial residual = 0.00033385525, Final residual = 4.0363616e-08, No Iterations 1
smoothSolver:  Solving for Uz, Initial residual = 0.00033046406, Final residual = 3.8541186e-08, No Iterations 1
DICPCG:  Solving for p, Initial residual = 0.0014654301, Final residual = 4.7765529e-05, No Iterations 3
DICPCG:  Solving for p, Initial residual = 0.00022063401, Final residual = 1.0364734e-05, No Iterations 9
DICPCG:  Solving for p, Initial residual = 6.4896034e-05, Final residual = 3.1431003e-06, No Iterations 161
time step continuity errors : sum local = 1.0016608e-11, global = 1.8548714e-14, cumulative = -8.6807327e-08
DICPCG:  Solving for p, Initial residual = 5.6491362e-05, Final residual = 2.3601255e-06, No Iterations 6
DICPCG:  Solving for p, Initial residual = 1.5250038e-05, Final residual = 9.7985925e-07, No Iterations 10
DICPCG:  Solving for p, Initial residual = 5.4878544e-06, Final residual = 8.0444155e-07, No Iterations 3
time step continuity errors : sum local = 2.5633165e-12, global = -1.5716958e-13, cumulative = -8.6807484e-08
ExecutionTime = 174.14 s  ClockTime = 182 s

Time = 19.1

Courant Number mean: 0.00071423422 max: 0.19572696
smoothSolver:  Solving for Ux, Initial residual = 0.00021112731, Final residual = 2.1826009e-08, No Iterations 1
smoothSolver:  Solving for Uy, Initial residual = 0.00033265407, Final residual = 4.0149936e-08, No Iterations 1
smoothSolver:  Solving for Uz, Initial residual = 0.00032962483, Final residual = 3.8306151e-08, No Iterations 1
DICPCG:  Solving for p, Initial residual = 0.0014704034, Final residual = 4.8420936e-05, No Iterations 3
DICPCG:  Solving for p, Initial residual = 0.00022757786, Final residual = 1.0611495e-05, No Iterations 8
DICPCG:  Solving for p, Initial residual = 6.4929247e-05, Final residual = 3.1860812e-06, No Iterations 159
time step continuity errors : sum local = 1.0141686e-11, global = 5.5121125e-15, cumulative = -8.6807478e-08
DICPCG:  Solving for p, Initial residual = 6.070705e-05, Final residual = 2.3767344e-06, No Iterations 6
DICPCG:  Solving for p, Initial residual = 1.6267855e-05, Final residual = 9.9640484e-07, No Iterations 11
DICPCG:  Solving for p, Initial residual = 6.267319e-06, Final residual = 8.0178362e-07, No Iterations 3
time step continuity errors : sum local = 2.5518416e-12, global = -1.9919591e-13, cumulative = -8.6807677e-08
ExecutionTime = 174.91 s  ClockTime = 183 s

Time = 19.2

Courant Number mean: 0.00071424842 max: 0.19574664
smoothSolver:  Solving for Ux, Initial residual = 0.00021036136, Final residual = 2.1594568e-08, No Iterations 1
smoothSolver:  Solving for Uy, Initial residual = 0.00033139739, Final residual = 3.9909155e-08, No Iterations 1
smoothSolver:  Solving for Uz, Initial residual = 0.00032888617, Final residual = 3.8045832e-08, No Iterations 1
DICPCG:  Solving for p, Initial residual = 0.0014669102, Final residual = 5.9050231e-05, No Iterations 3
DICPCG:  Solving for p, Initial residual = 0.0002309171, Final residual = 1.0854186e-05, No Iterations 15
DICPCG:  Solving for p, Initial residual = 7.9471674e-05, Final residual = 3.7482534e-06, No Iterations 124
time step continuity errors : sum local = 1.1917153e-11, global = 2.0589098e-14, cumulative = -8.6807657e-08
DICPCG:  Solving for p, Initial residual = 6.2536248e-05, Final residual = 2.5504232e-06, No Iterations 6
DICPCG:  Solving for p, Initial residual = 1.6671534e-05, Final residual = 9.9017611e-07, No Iterations 12
DICPCG:  Solving for p, Initial residual = 6.4015182e-06, Final residual = 7.6628267e-07, No Iterations 3
time step continuity errors : sum local = 2.4360082e-12, global = -1.3961489e-13, cumulative = -8.6807796e-08
ExecutionTime = 175.62 s  ClockTime = 184 s

Time = 19.3

Courant Number mean: 0.00071426262 max: 0.19576583
smoothSolver:  Solving for Ux, Initial residual = 0.00020965095, Final residual = 2.1375823e-08, No Iterations 1
smoothSolver:  Solving for Uy, Initial residual = 0.00033017417, Final residual = 3.9771198e-08, No Iterations 1
smoothSolver:  Solving for Uz, Initial residual = 0.00032818144, Final residual = 3.7762278e-08, No Iterations 1
DICPCG:  Solving for p, Initial residual = 0.0014502522, Final residual = 5.6387997e-05, No Iterations 3
DICPCG:  Solving for p, Initial residual = 0.00022441432, Final residual = 1.0722166e-05, No Iterations 9
DICPCG:  Solving for p, Initial residual = 7.0261019e-05, Final residual = 3.1381873e-06, No Iterations 131
time step continuity errors : sum local = 9.9660024e-12, global = -2.2025472e-15, cumulative = -8.6807799e-08
DICPCG:  Solving for p, Initial residual = 5.9657165e-05, Final residual = 2.4848486e-06, No Iterations 6
DICPCG:  Solving for p, Initial residual = 1.5802133e-05, Final residual = 9.6611483e-07, No Iterations 34
DICPCG:  Solving for p, Initial residual = 8.7763915e-06, Final residual = 7.7574689e-07, No Iterations 3
time step continuity errors : sum local = 2.4632602e-12, global = -1.5484e-13, cumulative = -8.6807954e-08
ExecutionTime = 176.37 s  ClockTime = 185 s

Time = 19.4

Courant Number mean: 0.00071427695 max: 0.19578465
smoothSolver:  Solving for Ux, Initial residual = 0.0002089768, Final residual = 2.1160196e-08, No Iterations 1
smoothSolver:  Solving for Uy, Initial residual = 0.0003289641, Final residual = 3.9576886e-08, No Iterations 1
smoothSolver:  Solving for Uz, Initial residual = 0.00032743654, Final residual = 3.7422127e-08, No Iterations 1
DICPCG:  Solving for p, Initial residual = 0.0014366762, Final residual = 5.3084174e-05, No Iterations 3
DICPCG:  Solving for p, Initial residual = 0.00021968401, Final residual = 1.0783882e-05, No Iterations 9
DICPCG:  Solving for p, Initial residual = 6.8930317e-05, Final residual = 3.3174766e-06, No Iterations 160
time step continuity errors : sum local = 1.0523196e-11, global = -5.9548033e-15, cumulative = -8.6807959e-08
DICPCG:  Solving for p, Initial residual = 6.8089304e-05, Final residual = 2.6625003e-06, No Iterations 6
DICPCG:  Solving for p, Initial residual = 1.7535292e-05, Final residual = 9.7480419e-07, No Iterations 11
DICPCG:  Solving for p, Initial residual = 6.1805553e-06, Final residual = 9.8885467e-07, No Iterations 2
time step continuity errors : sum local = 3.1362515e-12, global = -1.3608189e-13, cumulative = -8.6808096e-08
ExecutionTime = 177.14 s  ClockTime = 186 s

Time = 19.5

Courant Number mean: 0.00071429162 max: 0.19580315
smoothSolver:  Solving for Ux, Initial residual = 0.00020821312, Final residual = 2.0958013e-08, No Iterations 1
smoothSolver:  Solving for Uy, Initial residual = 0.00032776583, Final residual = 3.9370557e-08, No Iterations 1
smoothSolver:  Solving for Uz, Initial residual = 0.00032666041, Final residual = 3.7095489e-08, No Iterations 1
DICPCG:  Solving for p, Initial residual = 0.0014417708, Final residual = 6.1669495e-05, No Iterations 3
DICPCG:  Solving for p, Initial residual = 0.00023051693, Final residual = 1.0884733e-05, No Iterations 18
DICPCG:  Solving for p, Initial residual = 8.9619828e-05, Final residual = 4.4358879e-06, No Iterations 149
time step continuity errors : sum local = 1.4053558e-11, global = -1.1677753e-14, cumulative = -8.6808107e-08
DICPCG:  Solving for p, Initial residual = 7.1750935e-05, Final residual = 3.2103683e-06, No Iterations 6
DICPCG:  Solving for p, Initial residual = 1.8560893e-05, Final residual = 9.4721208e-07, No Iterations 23
DICPCG:  Solving for p, Initial residual = 9.4107462e-06, Final residual = 8.7584034e-07, No Iterations 3
time step continuity errors : sum local = 2.7743853e-12, global = -1.4162626e-13, cumulative = -8.6808249e-08
ExecutionTime = 178.26 s  ClockTime = 187 s

Time = 19.6

Courant Number mean: 0.00071430652 max: 0.19582136
smoothSolver:  Solving for Ux, Initial residual = 0.00020742742, Final residual = 2.0773283e-08, No Iterations 1
smoothSolver:  Solving for Uy, Initial residual = 0.00032654896, Final residual = 3.9396357e-08, No Iterations 1
smoothSolver:  Solving for Uz, Initial residual = 0.0003258804, Final residual = 3.683923e-08, No Iterations 1
DICPCG:  Solving for p, Initial residual = 0.0015004251, Final residual = 6.0244927e-05, No Iterations 3
DICPCG:  Solving for p, Initial residual = 0.00026053336, Final residual = 1.2875358e-05, No Iterations 9
DICPCG:  Solving for p, Initial residual = 8.1155717e-05, Final residual = 3.8069587e-06, No Iterations 157
time step continuity errors : sum local = 1.2046574e-11, global = -1.1876069e-14, cumulative = -8.6808261e-08
DICPCG:  Solving for p, Initial residual = 7.2105291e-05, Final residual = 3.1048886e-06, No Iterations 6
DICPCG:  Solving for p, Initial residual = 1.8809791e-05, Final residual = 9.7663563e-07, No Iterations 18
DICPCG:  Solving for p, Initial residual = 8.6932549e-06, Final residual = 8.0135828e-07, No Iterations 3
time step continuity errors : sum local = 2.5353963e-12, global = -2.0969368e-13, cumulative = -8.680847e-08
ExecutionTime = 179.19 s  ClockTime = 188 s

Time = 19.7

Courant Number mean: 0.00071432159 max: 0.19583933
smoothSolver:  Solving for Ux, Initial residual = 0.00020677893, Final residual = 2.0630302e-08, No Iterations 1
smoothSolver:  Solving for Uy, Initial residual = 0.00032521839, Final residual = 3.9252688e-08, No Iterations 1
smoothSolver:  Solving for Uz, Initial residual = 0.0003250036, Final residual = 3.653732e-08, No Iterations 1
DICPCG:  Solving for p, Initial residual = 0.0014213028, Final residual = 5.1850808e-05, No Iterations 3
DICPCG:  Solving for p, Initial residual = 0.00022297288, Final residual = 1.107242e-05, No Iterations 8
DICPCG:  Solving for p, Initial residual = 6.760489e-05, Final residual = 3.1758196e-06, No Iterations 158
time step continuity errors : sum local = 1.0037995e-11, global = -8.0791979e-15, cumulative = -8.6808479e-08
DICPCG:  Solving for p, Initial residual = 5.9461946e-05, Final residual = 2.6538561e-06, No Iterations 6
DICPCG:  Solving for p, Initial residual = 1.593593e-05, Final residual = 9.959951e-07, No Iterations 13
DICPCG:  Solving for p, Initial residual = 6.3587261e-06, Final residual = 7.5260089e-07, No Iterations 3
time step continuity errors : sum local = 2.3784869e-12, global = -1.444054e-13, cumulative = -8.6808623e-08
ExecutionTime = 180.15 s  ClockTime = 189 s

Time = 19.8

Courant Number mean: 0.00071433699 max: 0.19585707
smoothSolver:  Solving for Ux, Initial residual = 0.0002061238, Final residual = 2.0516966e-08, No Iterations 1
smoothSolver:  Solving for Uy, Initial residual = 0.00032397069, Final residual = 3.8994298e-08, No Iterations 1
smoothSolver:  Solving for Uz, Initial residual = 0.00032417356, Final residual = 3.6213237e-08, No Iterations 1
DICPCG:  Solving for p, Initial residual = 0.0015628855, Final residual = 6.6275072e-05, No Iterations 3
DICPCG:  Solving for p, Initial residual = 0.00026932572, Final residual = 1.2036387e-05, No Iterations 16
DICPCG:  Solving for p, Initial residual = 0.00010476469, Final residual = 4.890276e-06, No Iterations 123
time step continuity errors : sum local = 1.5439403e-11, global = 3.5626903e-14, cumulative = -8.6808587e-08
DICPCG:  Solving for p, Initial residual = 6.0768319e-05, Final residual = 2.9925036e-06, No Iterations 7
DICPCG:  Solving for p, Initial residual = 1.7104524e-05, Final residual = 9.4812864e-07, No Iterations 45
DICPCG:  Solving for p, Initial residual = 1.38596e-05, Final residual = 8.4673944e-07, No Iterations 4
time step continuity errors : sum local = 2.6730272e-12, global = -8.4543846e-14, cumulative = -8.6808672e-08
ExecutionTime = 181.2 s  ClockTime = 190 s

Time = 19.9

Courant Number mean: 0.00071435245 max: 0.19587464
smoothSolver:  Solving for Ux, Initial residual = 0.00020549235, Final residual = 2.0474247e-08, No Iterations 1
smoothSolver:  Solving for Uy, Initial residual = 0.00032284184, Final residual = 3.8776052e-08, No Iterations 1
smoothSolver:  Solving for Uz, Initial residual = 0.00032332748, Final residual = 3.5869853e-08, No Iterations 1
DICPCG:  Solving for p, Initial residual = 0.0014513986, Final residual = 6.282988e-05, No Iterations 3
DICPCG:  Solving for p, Initial residual = 0.00024677953, Final residual = 1.1088048e-05, No Iterations 9
DICPCG:  Solving for p, Initial residual = 8.0213004e-05, Final residual = 3.7565023e-06, No Iterations 155
time step continuity errors : sum local = 1.1846882e-11, global = 4.3695863e-16, cumulative = -8.6808671e-08
DICPCG:  Solving for p, Initial residual = 8.1825748e-05, Final residual = 3.2121102e-06, No Iterations 6
DICPCG:  Solving for p, Initial residual = 2.1143634e-05, Final residual = 1.0032572e-06, No Iterations 15
DICPCG:  Solving for p, Initial residual = 8.0810398e-06, Final residual = 8.6441774e-07, No Iterations 3
time step continuity errors : sum local = 2.7256016e-12, global = -1.8547914e-13, cumulative = -8.6808857e-08
ExecutionTime = 182.13 s  ClockTime = 191 s

Time = 20

Courant Number mean: 0.00071436822 max: 0.19589194
smoothSolver:  Solving for Ux, Initial residual = 0.00020499239, Final residual = 2.050425e-08, No Iterations 1
smoothSolver:  Solving for Uy, Initial residual = 0.00032171709, Final residual = 3.8472829e-08, No Iterations 1
smoothSolver:  Solving for Uz, Initial residual = 0.00032245077, Final residual = 3.5483853e-08, No Iterations 1
DICPCG:  Solving for p, Initial residual = 0.0014792266, Final residual = 5.3375993e-05, No Iterations 3
DICPCG:  Solving for p, Initial residual = 0.00024383656, Final residual = 1.0439094e-05, No Iterations 9
DICPCG:  Solving for p, Initial residual = 7.4395305e-05, Final residual = 3.5933632e-06, No Iterations 119
time step continuity errors : sum local = 1.1319867e-11, global = 7.4309207e-14, cumulative = -8.6808783e-08
DICPCG:  Solving for p, Initial residual = 6.4416244e-05, Final residual = 2.7926e-06, No Iterations 6
DICPCG:  Solving for p, Initial residual = 1.7559301e-05, Final residual = 9.8342721e-07, No Iterations 25
DICPCG:  Solving for p, Initial residual = 9.7814902e-06, Final residual = 8.9025979e-07, No Iterations 3
time step continuity errors : sum local = 2.8042222e-12, global = -7.2791507e-14, cumulative = -8.6808855e-08
ExecutionTime = 183.3 s  ClockTime = 192 s

End

Finalising parallel run
