/*---------------------------------------------------------------------------*\
  =========                 |
  \\      /  F ield         | OpenFOAM: The Open Source CFD Toolbox
   \\    /   O peration     | Website:  https://openfoam.org
    \\  /    A nd           | Version:  8
     \\/     M anipulation  |
\*---------------------------------------------------------------------------*/
Build  : 8-1c9b5879390b
Exec   : checkMesh
Date   : Nov 13 2021
Time   : 22:45:43
Host   : "pop-os"
PID    : 27956
I/O    : uncollated
Case   : /home/naimishbalaji/Desktop/Mini_Project/CFD-For-Ventilation-Analysis/simulations/icofoam_cases/3_branch_shifted_bed_shifted_main_one_out/case
nProcs : 1
sigFpe : Enabling floating point exception trapping (FOAM_SIGFPE).
fileModificationChecking : Monitoring run-time modified files using timeStampMaster (fileModificationSkew 10)
allowSystemOperations : Allowing user-supplied system call operations

// * * * * * * * * * * * * * * * * * * * * * * * * * * * * * * * * * * * * * //
Create time

Create polyMesh for time = 0

Time = 0

Mesh stats
    points:           109581
    faces:            285651
    internal faces:   265197
    cells:            91808
    faces per cell:   6
    boundary patches: 6
    point zones:      0
    face zones:       0
    cell zones:       1

Overall number of cells of each type:
    hexahedra:     91808
    prisms:        0
    wedges:        0
    pyramids:      0
    tet wedges:    0
    tetrahedra:    0
    polyhedra:     0

Checking topology...
    Boundary definition OK.
    Cell to face addressing OK.
    Point usage OK.
    Upper triangular ordering OK.
    Face vertices OK.
    Number of regions: 1 (OK).

Checking patch topology for multiply connected surfaces...
    Patch               Faces    Points   Surface topology                  
    wall                16686    16972    ok (non-closed singly connected)  
    surface             3600     3891     ok (non-closed singly connected)  
    main_outlet         24       31       ok (non-closed singly connected)  
    branch_outlet       48       62       ok (non-closed singly connected)  
    branch_inlet        72       93       ok (non-closed singly connected)  
    main_inlet          24       31       ok (non-closed singly connected)  

Checking geometry...
    Overall domain bounding box (-1524 0 0) (19812 12192 3962.4)
    Mesh has 3 geometric (non-empty/wedge) directions (1 1 1)
    Mesh has 3 solution (non-empty) directions (1 1 1)
    Boundary openness (-5.7468668e-17 -9.5218419e-18 5.3131878e-16) OK.
    Max cell openness = 2.5447688e-16 OK.
    Max aspect ratio = 8.5521453 OK.
    Minimum face area = 2021.004. Maximum face area = 159294.45.  Face area magnitudes OK.
    Min volume = 412215.62. Max volume = 27394177.  Total volume = 6.4865321e+11.  Cell volumes OK.
    Mesh non-orthogonality Max: 75.567521 average: 26.688128
   *Number of severely non-orthogonal (> 70 degrees) faces: 665.
    Non-orthogonality check OK.
  <<Writing 665 non-orthogonal faces to set nonOrthoFaces
    Face pyramids OK.
    Max skewness = 1.0789735 OK.
    Coupled point location match (average 0) OK.

Mesh OK.

End

