/*---------------------------------------------------------------------------*\
  =========                 |
  \\      /  F ield         | OpenFOAM: The Open Source CFD Toolbox
   \\    /   O peration     | Website:  https://openfoam.org
    \\  /    A nd           | Version:  8
     \\/     M anipulation  |
\*---------------------------------------------------------------------------*/
Build  : 8-1c9b5879390b
Exec   : gmshToFoam multi_outlet.msh
Date   : Nov 13 2021
Time   : 22:19:49
Host   : "pop-os"
PID    : 26216
I/O    : uncollated
Case   : /home/naimishbalaji/Desktop/Mini_Project/CFD-For-Ventilation-Analysis/simulations/icofoam_cases/3_branch_shifted_bed_shifted_main_one_out/case
nProcs : 1
sigFpe : Enabling floating point exception trapping (FOAM_SIGFPE).
fileModificationChecking : Monitoring run-time modified files using timeStampMaster (fileModificationSkew 10)
allowSystemOperations : Allowing user-supplied system call operations

// * * * * * * * * * * * * * * * * * * * * * * * * * * * * * * * * * * * * * //
Create time

Starting to read mesh format at line 2
Read format version 2.2  ascii 0

Starting to read physical names at line 5
Physical names:7
    Surface 347	wall
    Surface 348	main_inlet
    Surface 349	main_outlet
    Surface 350	branch_outlet
    Surface 351	branch_inlet
    Surface 352	surface
    Volume 346	flow_field

Starting to read points at line 15
Vertices to be read:109581
Vertices read:109581

Starting to read cells at line 109599
Cells to be read:112262

Mapping region 347 to Foam patch 0
Mapping region 352 to Foam patch 1
Mapping region 349 to Foam patch 2
Mapping region 350 to Foam patch 3
Mapping region 351 to Foam patch 4
Mapping region 348 to Foam patch 5
Mapping region 346 to Foam cellZone 0
Cells:
    total:91808
    hex  :91808
    prism:0
    pyr  :0
    tet  :0

CellZones:
Zone	Size
    0	91808

Skipping tag  at line 221864
Patch 0 gets name wall
Patch 1 gets name surface
Patch 2 gets name main_outlet
Patch 3 gets name branch_outlet
Patch 4 gets name branch_inlet
Patch 5 gets name main_inlet

--> FOAM Warning : 
    From function Foam::polyMesh::polyMesh(const Foam::IOobject&, Foam::pointField&&, const cellShapeList&, const faceListList&, const wordList&, const wordList&, const Foam::word&, const Foam::word&, const wordList&, bool)
    in file meshes/polyMesh/polyMeshFromShapeMesh.C at line 595
    Found 20454 undefined faces in mesh; adding to default patch.
Finding faces of patch 0
Finding faces of patch 1
Finding faces of patch 2
Finding faces of patch 3
Finding faces of patch 4
Finding faces of patch 5

FaceZones:
Zone	Size

Writing zone 0 to cellZone flow_field and cellSet
End

