/*---------------------------------------------------------------------------*\
  =========                 |
  \\      /  F ield         | OpenFOAM: The Open Source CFD Toolbox
   \\    /   O peration     | Website:  https://openfoam.org
    \\  /    A nd           | Version:  8
     \\/     M anipulation  |
\*---------------------------------------------------------------------------*/
Build  : 8-1c9b5879390b
Exec   : icoFoam -parallel
Date   : Nov 13 2021
Time   : 22:19:55
Host   : "pop-os"
PID    : 26225
I/O    : uncollated
Case   : /home/naimishbalaji/Desktop/Mini_Project/CFD-For-Ventilation-Analysis/simulations/icofoam_cases/3_branch_shifted_bed_shifted_main_one_out/case
nProcs : 2
Slaves : 1("pop-os.26226")
Pstream initialized with:
    floatTransfer      : 0
    nProcsSimpleSum    : 0
    commsType          : nonBlocking
    polling iterations : 0
sigFpe : Enabling floating point exception trapping (FOAM_SIGFPE).
fileModificationChecking : Monitoring run-time modified files using timeStampMaster (fileModificationSkew 10)
allowSystemOperations : Allowing user-supplied system call operations

// * * * * * * * * * * * * * * * * * * * * * * * * * * * * * * * * * * * * * //
Create time

Create mesh for time = 0

Reading transportProperties

Reading field p

Reading field U

Reading/calculating face flux field phi


Starting time loop

Time = 0.1

Courant Number mean: 2.337424e-06 max: 0.014225135
smoothSolver:  Solving for Ux, Initial residual = 1, Final residual = 9.0092079e-17, No Iterations 1
smoothSolver:  Solving for Uy, Initial residual = 0, Final residual = 0, No Iterations 0
smoothSolver:  Solving for Uz, Initial residual = 1, Final residual = 9.9721419e-17, No Iterations 1
DICPCG:  Solving for p, Initial residual = 1, Final residual = 0.049936189, No Iterations 183
DICPCG:  Solving for p, Initial residual = 0.35518457, Final residual = 0.014617915, No Iterations 4
DICPCG:  Solving for p, Initial residual = 0.061084993, Final residual = 0.003046837, No Iterations 6
time step continuity errors : sum local = 1.8083903e-06, global = -1.5542083e-08, cumulative = -1.5542083e-08
DICPCG:  Solving for p, Initial residual = 0.015475506, Final residual = 0.00073334074, No Iterations 15
DICPCG:  Solving for p, Initial residual = 0.0063764482, Final residual = 0.00027789447, No Iterations 16
DICPCG:  Solving for p, Initial residual = 0.0024394407, Final residual = 9.8896936e-07, No Iterations 187
time step continuity errors : sum local = 5.928833e-10, global = 4.4902848e-13, cumulative = -1.5541634e-08
ExecutionTime = 1.36 s  ClockTime = 1 s

Time = 0.2

Courant Number mean: 0.00054474908 max: 0.099368557
smoothSolver:  Solving for Ux, Initial residual = 0.36896375, Final residual = 8.3312206e-06, No Iterations 1
smoothSolver:  Solving for Uy, Initial residual = 0.33288494, Final residual = 6.73746e-06, No Iterations 1
smoothSolver:  Solving for Uz, Initial residual = 0.33133538, Final residual = 8.6412266e-09, No Iterations 2
DICPCG:  Solving for p, Initial residual = 0.081955917, Final residual = 0.0040817993, No Iterations 155
DICPCG:  Solving for p, Initial residual = 0.60371131, Final residual = 0.025358129, No Iterations 4
DICPCG:  Solving for p, Initial residual = 0.2916673, Final residual = 0.012986234, No Iterations 9
time step continuity errors : sum local = 1.6585832e-06, global = -6.1750889e-08, cumulative = -7.7292523e-08
DICPCG:  Solving for p, Initial residual = 0.099222151, Final residual = 0.0049292792, No Iterations 139
DICPCG:  Solving for p, Initial residual = 0.077533461, Final residual = 0.0036872401, No Iterations 13
DICPCG:  Solving for p, Initial residual = 0.023610165, Final residual = 8.7990005e-07, No Iterations 224
time step continuity errors : sum local = 8.3728028e-11, global = 1.4590532e-13, cumulative = -7.7292377e-08
ExecutionTime = 2.82 s  ClockTime = 2 s

Time = 0.3

Courant Number mean: 0.00055154618 max: 0.10074229
smoothSolver:  Solving for Ux, Initial residual = 0.024911954, Final residual = 8.817206e-07, No Iterations 1
smoothSolver:  Solving for Uy, Initial residual = 0.039349647, Final residual = 1.4106813e-06, No Iterations 1
smoothSolver:  Solving for Uz, Initial residual = 0.03646535, Final residual = 1.7524087e-06, No Iterations 1
DICPCG:  Solving for p, Initial residual = 0.44426095, Final residual = 0.017440345, No Iterations 4
DICPCG:  Solving for p, Initial residual = 0.21378015, Final residual = 0.0094754663, No Iterations 6
DICPCG:  Solving for p, Initial residual = 0.066792912, Final residual = 0.0030205023, No Iterations 10
time step continuity errors : sum local = 1.1778728e-07, global = -4.9386985e-09, cumulative = -8.2231076e-08
DICPCG:  Solving for p, Initial residual = 0.026187784, Final residual = 0.0012683985, No Iterations 26
DICPCG:  Solving for p, Initial residual = 0.012851036, Final residual = 0.00063449032, No Iterations 35
DICPCG:  Solving for p, Initial residual = 0.0062047048, Final residual = 9.3180535e-07, No Iterations 207
time step continuity errors : sum local = 3.5947088e-11, global = -1.1347384e-14, cumulative = -8.2231087e-08
ExecutionTime = 3.88 s  ClockTime = 4 s

Time = 0.4

Courant Number mean: 0.00055172592 max: 0.10096077
smoothSolver:  Solving for Ux, Initial residual = 0.0083671881, Final residual = 3.9538949e-07, No Iterations 1
smoothSolver:  Solving for Uy, Initial residual = 0.012900849, Final residual = 5.5936084e-07, No Iterations 1
smoothSolver:  Solving for Uz, Initial residual = 0.012433395, Final residual = 7.2366984e-07, No Iterations 1
DICPCG:  Solving for p, Initial residual = 0.19289623, Final residual = 0.0092321162, No Iterations 3
DICPCG:  Solving for p, Initial residual = 0.054250332, Final residual = 0.0026383173, No Iterations 13
DICPCG:  Solving for p, Initial residual = 0.016637549, Final residual = 0.00080347579, No Iterations 21
time step continuity errors : sum local = 2.1400565e-08, global = -7.0294376e-09, cumulative = -8.9260525e-08
DICPCG:  Solving for p, Initial residual = 0.0068677489, Final residual = 0.00032084164, No Iterations 131
DICPCG:  Solving for p, Initial residual = 0.0055396591, Final residual = 0.00025715738, No Iterations 5
DICPCG:  Solving for p, Initial residual = 0.0014370333, Final residual = 9.427104e-07, No Iterations 133
time step continuity errors : sum local = 2.5071345e-11, global = 3.805551e-12, cumulative = -8.9256719e-08
ExecutionTime = 4.86 s  ClockTime = 5 s

Time = 0.5

Courant Number mean: 0.00055170891 max: 0.10117796
smoothSolver:  Solving for Ux, Initial residual = 0.0055919664, Final residual = 2.9725738e-07, No Iterations 1
smoothSolver:  Solving for Uy, Initial residual = 0.0084265871, Final residual = 3.9586414e-07, No Iterations 1
smoothSolver:  Solving for Uz, Initial residual = 0.0082385489, Final residual = 5.0781353e-07, No Iterations 1
DICPCG:  Solving for p, Initial residual = 0.11018636, Final residual = 0.0048462622, No Iterations 3
DICPCG:  Solving for p, Initial residual = 0.025111119, Final residual = 0.0011539174, No Iterations 15
DICPCG:  Solving for p, Initial residual = 0.0073217006, Final residual = 0.00035320987, No Iterations 127
time step continuity errors : sum local = 7.617377e-09, global = -2.9949722e-11, cumulative = -8.9286669e-08
DICPCG:  Solving for p, Initial residual = 0.005352129, Final residual = 0.0002591064, No Iterations 4
DICPCG:  Solving for p, Initial residual = 0.0014105015, Final residual = 6.8862342e-05, No Iterations 32
DICPCG:  Solving for p, Initial residual = 0.00080286776, Final residual = 9.3818305e-07, No Iterations 178
time step continuity errors : sum local = 2.04824e-11, global = -4.0938696e-14, cumulative = -8.928671e-08
ExecutionTime = 5.99 s  ClockTime = 6 s

Time = 0.6

Courant Number mean: 0.00055171062 max: 0.10141093
smoothSolver:  Solving for Ux, Initial residual = 0.0044325271, Final residual = 2.4451092e-07, No Iterations 1
smoothSolver:  Solving for Uy, Initial residual = 0.0066403914, Final residual = 3.2797222e-07, No Iterations 1
smoothSolver:  Solving for Uz, Initial residual = 0.0065032222, Final residual = 4.0715554e-07, No Iterations 1
DICPCG:  Solving for p, Initial residual = 0.082777112, Final residual = 0.0040036419, No Iterations 2
DICPCG:  Solving for p, Initial residual = 0.017425507, Final residual = 0.00077257898, No Iterations 15
DICPCG:  Solving for p, Initial residual = 0.0049040177, Final residual = 0.00022903081, No Iterations 127
time step continuity errors : sum local = 4.2654447e-09, global = -2.6413404e-11, cumulative = -8.9313123e-08
DICPCG:  Solving for p, Initial residual = 0.0033431552, Final residual = 0.00014523538, No Iterations 5
DICPCG:  Solving for p, Initial residual = 0.00089180669, Final residual = 4.4360395e-05, No Iterations 39
DICPCG:  Solving for p, Initial residual = 0.00057440257, Final residual = 9.5028584e-07, No Iterations 180
time step continuity errors : sum local = 1.7835358e-11, global = 4.2782128e-14, cumulative = -8.931308e-08
ExecutionTime = 6.93 s  ClockTime = 7 s

Time = 0.7

Courant Number mean: 0.00055171526 max: 0.10163648
smoothSolver:  Solving for Ux, Initial residual = 0.0037156204, Final residual = 2.0997415e-07, No Iterations 1
smoothSolver:  Solving for Uy, Initial residual = 0.0055468469, Final residual = 2.8461992e-07, No Iterations 1
smoothSolver:  Solving for Uz, Initial residual = 0.0054271862, Final residual = 3.431935e-07, No Iterations 1
DICPCG:  Solving for p, Initial residual = 0.06723131, Final residual = 0.0030349851, No Iterations 2
DICPCG:  Solving for p, Initial residual = 0.013356874, Final residual = 0.00056687269, No Iterations 15
DICPCG:  Solving for p, Initial residual = 0.0035650284, Final residual = 0.00017435165, No Iterations 124
time step continuity errors : sum local = 2.8755152e-09, global = -1.9962978e-13, cumulative = -8.931328e-08
DICPCG:  Solving for p, Initial residual = 0.0023403687, Final residual = 0.00010207186, No Iterations 5
DICPCG:  Solving for p, Initial residual = 0.00062009209, Final residual = 3.0323992e-05, No Iterations 46
DICPCG:  Solving for p, Initial residual = 0.00044286304, Final residual = 9.8802297e-07, No Iterations 181
time step continuity errors : sum local = 1.6380637e-11, global = 4.6371582e-14, cumulative = -8.9313234e-08
ExecutionTime = 7.92 s  ClockTime = 8 s

Time = 0.8

Courant Number mean: 0.00055172215 max: 0.10185797
smoothSolver:  Solving for Ux, Initial residual = 0.0032193127, Final residual = 1.8745686e-07, No Iterations 1
smoothSolver:  Solving for Uy, Initial residual = 0.0047922843, Final residual = 2.5518585e-07, No Iterations 1
smoothSolver:  Solving for Uz, Initial residual = 0.0046853595, Final residual = 3.0058047e-07, No Iterations 1
DICPCG:  Solving for p, Initial residual = 0.057264288, Final residual = 0.0023843294, No Iterations 2
DICPCG:  Solving for p, Initial residual = 0.010893265, Final residual = 0.00048167403, No Iterations 14
DICPCG:  Solving for p, Initial residual = 0.0027554277, Final residual = 0.00013758705, No Iterations 105
time step continuity errors : sum local = 2.0435845e-09, global = -3.9451438e-12, cumulative = -8.9317179e-08
DICPCG:  Solving for p, Initial residual = 0.0016451733, Final residual = 7.5433374e-05, No Iterations 5
DICPCG:  Solving for p, Initial residual = 0.00044712476, Final residual = 2.083084e-05, No Iterations 50
DICPCG:  Solving for p, Initial residual = 0.00034892912, Final residual = 9.6191027e-07, No Iterations 167
time step continuity errors : sum local = 1.4332229e-11, global = -7.781654e-15, cumulative = -8.9317187e-08
ExecutionTime = 8.86 s  ClockTime = 9 s

Time = 0.9

Courant Number mean: 0.00055172846 max: 0.10206064
smoothSolver:  Solving for Ux, Initial residual = 0.0028514197, Final residual = 1.7077185e-07, No Iterations 1
smoothSolver:  Solving for Uy, Initial residual = 0.0042387135, Final residual = 2.3337685e-07, No Iterations 1
smoothSolver:  Solving for Uz, Initial residual = 0.004134701, Final residual = 2.6866697e-07, No Iterations 1
DICPCG:  Solving for p, Initial residual = 0.049911981, Final residual = 0.0019448015, No Iterations 2
DICPCG:  Solving for p, Initial residual = 0.0091540729, Final residual = 0.00041520632, No Iterations 9
DICPCG:  Solving for p, Initial residual = 0.0022128274, Final residual = 0.00010004473, No Iterations 16
time step continuity errors : sum local = 1.354598e-09, global = -4.4551107e-10, cumulative = -8.9762698e-08
DICPCG:  Solving for p, Initial residual = 0.00087289552, Final residual = 4.1019874e-05, No Iterations 113
DICPCG:  Solving for p, Initial residual = 0.000791556, Final residual = 3.8789474e-05, No Iterations 4
DICPCG:  Solving for p, Initial residual = 0.00019265112, Final residual = 9.1442792e-07, No Iterations 94
time step continuity errors : sum local = 1.2403823e-11, global = 8.2540645e-13, cumulative = -8.9761872e-08
ExecutionTime = 9.56 s  ClockTime = 9 s

Time = 1

Courant Number mean: 0.00055173431 max: 0.10224196
smoothSolver:  Solving for Ux, Initial residual = 0.0025658404, Final residual = 1.5764679e-07, No Iterations 1
smoothSolver:  Solving for Uy, Initial residual = 0.003812975, Final residual = 2.1693186e-07, No Iterations 1
smoothSolver:  Solving for Uz, Initial residual = 0.0037099797, Final residual = 2.4405563e-07, No Iterations 1
DICPCG:  Solving for p, Initial residual = 0.044336409, Final residual = 0.0016579994, No Iterations 2
DICPCG:  Solving for p, Initial residual = 0.0078853683, Final residual = 0.00039210503, No Iterations 7
DICPCG:  Solving for p, Initial residual = 0.0018345356, Final residual = 8.6557087e-05, No Iterations 17
time step continuity errors : sum local = 1.0786718e-09, global = -2.4223962e-10, cumulative = -9.0004112e-08
DICPCG:  Solving for p, Initial residual = 0.00071502477, Final residual = 3.3935018e-05, No Iterations 124
DICPCG:  Solving for p, Initial residual = 0.00056437646, Final residual = 2.7624911e-05, No Iterations 4
DICPCG:  Solving for p, Initial residual = 0.00013992747, Final residual = 9.5588456e-07, No Iterations 96
time step continuity errors : sum local = 1.1923785e-11, global = -2.2258626e-12, cumulative = -9.0006338e-08
ExecutionTime = 10.49 s  ClockTime = 10 s

Time = 1.1

Courant Number mean: 0.00055173909 max: 0.10240714
smoothSolver:  Solving for Ux, Initial residual = 0.0023376823, Final residual = 1.4743583e-07, No Iterations 1
smoothSolver:  Solving for Uy, Initial residual = 0.0034717044, Final residual = 2.0366857e-07, No Iterations 1
smoothSolver:  Solving for Uz, Initial residual = 0.003370583, Final residual = 2.2466026e-07, No Iterations 1
DICPCG:  Solving for p, Initial residual = 0.039846424, Final residual = 0.0014302329, No Iterations 2
DICPCG:  Solving for p, Initial residual = 0.006932728, Final residual = 0.00031304936, No Iterations 6
DICPCG:  Solving for p, Initial residual = 0.0015965341, Final residual = 7.7656683e-05, No Iterations 14
time step continuity errors : sum local = 8.9783349e-10, global = -1.443516e-10, cumulative = -9.0150689e-08
DICPCG:  Solving for p, Initial residual = 0.00060333936, Final residual = 2.9779358e-05, No Iterations 142
DICPCG:  Solving for p, Initial residual = 0.00038934112, Final residual = 1.7378455e-05, No Iterations 5
DICPCG:  Solving for p, Initial residual = 0.00010182597, Final residual = 9.8318511e-07, No Iterations 84
time step continuity errors : sum local = 1.1371283e-11, global = -1.5078652e-12, cumulative = -9.0152197e-08
ExecutionTime = 11.2 s  ClockTime = 11 s

Time = 1.2

Courant Number mean: 0.00055174375 max: 0.10255777
smoothSolver:  Solving for Ux, Initial residual = 0.0021501729, Final residual = 1.385382e-07, No Iterations 1
smoothSolver:  Solving for Uy, Initial residual = 0.0031925669, Final residual = 1.9241301e-07, No Iterations 1
smoothSolver:  Solving for Uz, Initial residual = 0.0030925314, Final residual = 2.0883762e-07, No Iterations 1
DICPCG:  Solving for p, Initial residual = 0.036277345, Final residual = 0.0012606297, No Iterations 2
DICPCG:  Solving for p, Initial residual = 0.0061617497, Final residual = 0.00027392624, No Iterations 6
DICPCG:  Solving for p, Initial residual = 0.0014115829, Final residual = 6.8861941e-05, No Iterations 12
time step continuity errors : sum local = 7.4359371e-10, global = -5.0467561e-11, cumulative = -9.0202665e-08
DICPCG:  Solving for p, Initial residual = 0.00051390464, Final residual = 2.4108593e-05, No Iterations 17
DICPCG:  Solving for p, Initial residual = 0.00022721393, Final residual = 1.1123969e-05, No Iterations 141
DICPCG:  Solving for p, Initial residual = 0.00014602647, Final residual = 9.9846274e-07, No Iterations 49
time step continuity errors : sum local = 1.0779946e-11, global = 1.9246575e-12, cumulative = -9.020074e-08
ExecutionTime = 11.93 s  ClockTime = 12 s

Time = 1.3

Courant Number mean: 0.00055174823 max: 0.10269736
smoothSolver:  Solving for Ux, Initial residual = 0.0019936401, Final residual = 1.3152627e-07, No Iterations 1
smoothSolver:  Solving for Uy, Initial residual = 0.0029597337, Final residual = 1.8329229e-07, No Iterations 1
smoothSolver:  Solving for Uz, Initial residual = 0.0028615317, Final residual = 1.9595778e-07, No Iterations 1
DICPCG:  Solving for p, Initial residual = 0.033253503, Final residual = 0.0011337003, No Iterations 2
DICPCG:  Solving for p, Initial residual = 0.0055701367, Final residual = 0.00024939736, No Iterations 6
DICPCG:  Solving for p, Initial residual = 0.0012784912, Final residual = 6.3226518e-05, No Iterations 12
time step continuity errors : sum local = 6.4107497e-10, global = 8.9961936e-12, cumulative = -9.0191744e-08
DICPCG:  Solving for p, Initial residual = 0.00046338179, Final residual = 2.2257052e-05, No Iterations 18
DICPCG:  Solving for p, Initial residual = 0.00021148685, Final residual = 1.0071762e-05, No Iterations 142
DICPCG:  Solving for p, Initial residual = 0.00012825918, Final residual = 9.7520213e-07, No Iterations 41
time step continuity errors : sum local = 9.8830718e-12, global = -3.6853695e-13, cumulative = -9.0192112e-08
ExecutionTime = 12.58 s  ClockTime = 12 s

Time = 1.4

Courant Number mean: 0.00055175248 max: 0.10282446
smoothSolver:  Solving for Ux, Initial residual = 0.0018609344, Final residual = 1.2525201e-07, No Iterations 1
smoothSolver:  Solving for Uy, Initial residual = 0.0027630895, Final residual = 1.7538837e-07, No Iterations 1
smoothSolver:  Solving for Uz, Initial residual = 0.002666948, Final residual = 1.8476758e-07, No Iterations 1
DICPCG:  Solving for p, Initial residual = 0.030834362, Final residual = 0.0010355361, No Iterations 2
DICPCG:  Solving for p, Initial residual = 0.0050953697, Final residual = 0.00023538024, No Iterations 6
DICPCG:  Solving for p, Initial residual = 0.001172146, Final residual = 5.0267256e-05, No Iterations 16
time step continuity errors : sum local = 4.805693e-10, global = 3.8408653e-11, cumulative = -9.0153704e-08
DICPCG:  Solving for p, Initial residual = 0.00044851713, Final residual = 2.0703136e-05, No Iterations 21
DICPCG:  Solving for p, Initial residual = 0.00017574952, Final residual = 8.5724137e-06, No Iterations 132
DICPCG:  Solving for p, Initial residual = 0.00012848885, Final residual = 9.768641e-07, No Iterations 51
time step continuity errors : sum local = 9.3332294e-12, global = -1.685023e-12, cumulative = -9.0155389e-08
ExecutionTime = 13.25 s  ClockTime = 13 s

Time = 1.5

Courant Number mean: 0.00055175788 max: 0.1029372
smoothSolver:  Solving for Ux, Initial residual = 0.0017468453, Final residual = 1.194214e-07, No Iterations 1
smoothSolver:  Solving for Uy, Initial residual = 0.0025941979, Final residual = 1.684509e-07, No Iterations 1
smoothSolver:  Solving for Uz, Initial residual = 0.0024998108, Final residual = 1.7479028e-07, No Iterations 1
DICPCG:  Solving for p, Initial residual = 0.02862125, Final residual = 0.00095531763, No Iterations 2
DICPCG:  Solving for p, Initial residual = 0.0046583764, Final residual = 0.00022476081, No Iterations 6
DICPCG:  Solving for p, Initial residual = 0.0010666307, Final residual = 5.1588132e-05, No Iterations 17
time step continuity errors : sum local = 4.6694679e-10, global = 5.5294472e-11, cumulative = -9.0100094e-08
DICPCG:  Solving for p, Initial residual = 0.00042143226, Final residual = 2.0519364e-05, No Iterations 23
DICPCG:  Solving for p, Initial residual = 0.00016505895, Final residual = 7.5557741e-06, No Iterations 132
DICPCG:  Solving for p, Initial residual = 0.00014439714, Final residual = 9.6743632e-07, No Iterations 157
time step continuity errors : sum local = 8.7502536e-12, global = -2.5965155e-14, cumulative = -9.010012e-08
ExecutionTime = 14.35 s  ClockTime = 14 s

Time = 1.6

Courant Number mean: 0.00055176424 max: 0.10302939
smoothSolver:  Solving for Ux, Initial residual = 0.001647618, Final residual = 1.136871e-07, No Iterations 1
smoothSolver:  Solving for Uy, Initial residual = 0.0024471946, Final residual = 1.6096893e-07, No Iterations 1
smoothSolver:  Solving for Uz, Initial residual = 0.0023547909, Final residual = 1.645787e-07, No Iterations 1
DICPCG:  Solving for p, Initial residual = 0.026816284, Final residual = 0.00087837875, No Iterations 2
DICPCG:  Solving for p, Initial residual = 0.0043081966, Final residual = 0.00021367921, No Iterations 7
DICPCG:  Solving for p, Initial residual = 0.00097448667, Final residual = 4.7871836e-05, No Iterations 19
time step continuity errors : sum local = 4.1160083e-10, global = 7.6835921e-11, cumulative = -9.0023284e-08
DICPCG:  Solving for p, Initial residual = 0.00040679118, Final residual = 1.9752545e-05, No Iterations 126
DICPCG:  Solving for p, Initial residual = 0.00026158364, Final residual = 1.2075683e-05, No Iterations 6
DICPCG:  Solving for p, Initial residual = 7.4093326e-05, Final residual = 9.6629372e-07, No Iterations 60
time step continuity errors : sum local = 8.3001616e-12, global = -3.1533407e-13, cumulative = -9.00236e-08
ExecutionTime = 14.99 s  ClockTime = 15 s

Time = 1.7

Courant Number mean: 0.00055177069 max: 0.10309592
smoothSolver:  Solving for Ux, Initial residual = 0.0015600323, Final residual = 1.0845125e-07, No Iterations 1
smoothSolver:  Solving for Uy, Initial residual = 0.002317949, Final residual = 1.5516926e-07, No Iterations 1
smoothSolver:  Solving for Uz, Initial residual = 0.002228584, Final residual = 1.5607089e-07, No Iterations 1
DICPCG:  Solving for p, Initial residual = 0.025051201, Final residual = 0.00081965793, No Iterations 2
DICPCG:  Solving for p, Initial residual = 0.0039806135, Final residual = 0.00018823916, No Iterations 8
DICPCG:  Solving for p, Initial residual = 0.00090708907, Final residual = 4.3128027e-05, No Iterations 21
time step continuity errors : sum local = 3.5334143e-10, global = 9.1258711e-11, cumulative = -8.9932341e-08
DICPCG:  Solving for p, Initial residual = 0.00040307056, Final residual = 1.9500623e-05, No Iterations 123
DICPCG:  Solving for p, Initial residual = 0.00028503944, Final residual = 1.3126425e-05, No Iterations 5
DICPCG:  Solving for p, Initial residual = 7.6495352e-05, Final residual = 9.9460184e-07, No Iterations 54
time step continuity errors : sum local = 8.1396056e-12, global = -2.2296281e-13, cumulative = -8.9932564e-08
ExecutionTime = 15.7 s  ClockTime = 15 s

Time = 1.8

Courant Number mean: 0.00055177686 max: 0.10314282
smoothSolver:  Solving for Ux, Initial residual = 0.0014824825, Final residual = 1.0363179e-07, No Iterations 1
smoothSolver:  Solving for Uy, Initial residual = 0.0022035753, Final residual = 1.5037175e-07, No Iterations 1
smoothSolver:  Solving for Uz, Initial residual = 0.0021157917, Final residual = 1.4882064e-07, No Iterations 1
DICPCG:  Solving for p, Initial residual = 0.023557963, Final residual = 0.00077431287, No Iterations 2
DICPCG:  Solving for p, Initial residual = 0.0037048919, Final residual = 0.0001850353, No Iterations 8
DICPCG:  Solving for p, Initial residual = 0.00085369504, Final residual = 3.8701349e-05, No Iterations 22
time step continuity errors : sum local = 3.0295999e-10, global = 9.4763925e-11, cumulative = -8.98378e-08
DICPCG:  Solving for p, Initial residual = 0.00038738442, Final residual = 1.8722814e-05, No Iterations 123
DICPCG:  Solving for p, Initial residual = 0.00029926837, Final residual = 1.38971e-05, No Iterations 5
DICPCG:  Solving for p, Initial residual = 7.8622737e-05, Final residual = 9.7093335e-07, No Iterations 58
time step continuity errors : sum local = 7.5918856e-12, global = -3.425335e-13, cumulative = -8.9838143e-08
ExecutionTime = 16.39 s  ClockTime = 16 s

Time = 1.9

Courant Number mean: 0.00055178265 max: 0.10317965
smoothSolver:  Solving for Ux, Initial residual = 0.0014133167, Final residual = 9.9348245e-08, No Iterations 1
smoothSolver:  Solving for Uy, Initial residual = 0.0021012742, Final residual = 1.4579079e-07, No Iterations 1
smoothSolver:  Solving for Uz, Initial residual = 0.0020154503, Final residual = 1.4257753e-07, No Iterations 1
DICPCG:  Solving for p, Initial residual = 0.022223089, Final residual = 0.00074990184, No Iterations 2
DICPCG:  Solving for p, Initial residual = 0.0034754346, Final residual = 0.00016111351, No Iterations 9
DICPCG:  Solving for p, Initial residual = 0.00082273674, Final residual = 3.7834796e-05, No Iterations 23
time step continuity errors : sum local = 2.8374813e-10, global = 8.9534149e-11, cumulative = -8.9748608e-08
DICPCG:  Solving for p, Initial residual = 0.00037062891, Final residual = 1.7131185e-05, No Iterations 125
DICPCG:  Solving for p, Initial residual = 0.00029653606, Final residual = 1.2763131e-05, No Iterations 5
DICPCG:  Solving for p, Initial residual = 7.6379632e-05, Final residual = 9.5211024e-07, No Iterations 59
time step continuity errors : sum local = 7.132328e-12, global = -2.9129719e-13, cumulative = -8.97489e-08
ExecutionTime = 17.06 s  ClockTime = 17 s

Time = 2

Courant Number mean: 0.00055178834 max: 0.10320582
smoothSolver:  Solving for Ux, Initial residual = 0.00135102, Final residual = 9.5168511e-08, No Iterations 1
smoothSolver:  Solving for Uy, Initial residual = 0.0020095285, Final residual = 1.4157294e-07, No Iterations 1
smoothSolver:  Solving for Uz, Initial residual = 0.0019250371, Final residual = 1.362171e-07, No Iterations 1
DICPCG:  Solving for p, Initial residual = 0.021142677, Final residual = 0.00070519631, No Iterations 2
DICPCG:  Solving for p, Initial residual = 0.0032703414, Final residual = 0.00016232245, No Iterations 9
DICPCG:  Solving for p, Initial residual = 0.0007809821, Final residual = 3.7683154e-05, No Iterations 27
time step continuity errors : sum local = 2.7135669e-10, global = 1.1334564e-10, cumulative = -8.9635554e-08
DICPCG:  Solving for p, Initial residual = 0.00036476925, Final residual = 1.7078389e-05, No Iterations 119
DICPCG:  Solving for p, Initial residual = 0.00033741853, Final residual = 1.658894e-05, No Iterations 4
DICPCG:  Solving for p, Initial residual = 8.4555623e-05, Final residual = 9.6872882e-07, No Iterations 62
time step continuity errors : sum local = 6.9663577e-12, global = -4.7553302e-13, cumulative = -8.963603e-08
ExecutionTime = 17.91 s  ClockTime = 18 s

Time = 2.1

Courant Number mean: 0.00055179472 max: 0.10322305
smoothSolver:  Solving for Ux, Initial residual = 0.0012946097, Final residual = 9.0707109e-08, No Iterations 1
smoothSolver:  Solving for Uy, Initial residual = 0.0019267527, Final residual = 1.3760017e-07, No Iterations 1
smoothSolver:  Solving for Uz, Initial residual = 0.0018442226, Final residual = 1.3174057e-07, No Iterations 1
DICPCG:  Solving for p, Initial residual = 0.020112325, Final residual = 0.00065592852, No Iterations 2
DICPCG:  Solving for p, Initial residual = 0.0030826449, Final residual = 0.00015365147, No Iterations 11
DICPCG:  Solving for p, Initial residual = 0.00075069737, Final residual = 3.5205615e-05, No Iterations 130
time step continuity errors : sum local = 2.4386956e-10, global = 7.3198636e-13, cumulative = -8.9635298e-08
DICPCG:  Solving for p, Initial residual = 0.00040989942, Final residual = 2.0255314e-05, No Iterations 6
DICPCG:  Solving for p, Initial residual = 0.00011821628, Final residual = 5.7575336e-06, No Iterations 21
DICPCG:  Solving for p, Initial residual = 5.7734361e-05, Final residual = 9.7719383e-07, No Iterations 154
time step continuity errors : sum local = 6.7601837e-12, global = 4.2472432e-14, cumulative = -8.9635255e-08
ExecutionTime = 18.77 s  ClockTime = 18 s

Time = 2.2

Courant Number mean: 0.00055180185 max: 0.10323246
smoothSolver:  Solving for Ux, Initial residual = 0.0012430209, Final residual = 8.7353086e-08, No Iterations 1
smoothSolver:  Solving for Uy, Initial residual = 0.0018512634, Final residual = 1.3369156e-07, No Iterations 1
smoothSolver:  Solving for Uz, Initial residual = 0.0017708066, Final residual = 1.2671207e-07, No Iterations 1
DICPCG:  Solving for p, Initial residual = 0.01913168, Final residual = 0.00061650577, No Iterations 2
DICPCG:  Solving for p, Initial residual = 0.0029013395, Final residual = 0.00013902772, No Iterations 13
DICPCG:  Solving for p, Initial residual = 0.00072511299, Final residual = 3.5773476e-05, No Iterations 128
time step continuity errors : sum local = 2.3887157e-10, global = 5.146141e-13, cumulative = -8.9634741e-08
DICPCG:  Solving for p, Initial residual = 0.00042012449, Final residual = 2.0677919e-05, No Iterations 7
DICPCG:  Solving for p, Initial residual = 0.00011807337, Final residual = 5.513796e-06, No Iterations 22
DICPCG:  Solving for p, Initial residual = 5.7675641e-05, Final residual = 9.8228291e-07, No Iterations 48
time step continuity errors : sum local = 6.5503771e-12, global = 1.0898084e-12, cumulative = -8.9633651e-08
ExecutionTime = 19.42 s  ClockTime = 19 s

Time = 2.3

Courant Number mean: 0.00055180916 max: 0.10323909
smoothSolver:  Solving for Ux, Initial residual = 0.0011961028, Final residual = 8.4141453e-08, No Iterations 1
smoothSolver:  Solving for Uy, Initial residual = 0.0017821624, Final residual = 1.3007445e-07, No Iterations 1
smoothSolver:  Solving for Uz, Initial residual = 0.0017037919, Final residual = 1.2209897e-07, No Iterations 1
DICPCG:  Solving for p, Initial residual = 0.018200466, Final residual = 0.00059297772, No Iterations 2
DICPCG:  Solving for p, Initial residual = 0.0027492326, Final residual = 0.0001227801, No Iterations 14
DICPCG:  Solving for p, Initial residual = 0.00069543081, Final residual = 3.3320503e-05, No Iterations 22
time step continuity errors : sum local = 2.148836e-10, global = 9.7877715e-11, cumulative = -8.9535773e-08
DICPCG:  Solving for p, Initial residual = 0.00030240902, Final residual = 1.4379301e-05, No Iterations 126
DICPCG:  Solving for p, Initial residual = 0.00032759843, Final residual = 1.4912516e-05, No Iterations 4
DICPCG:  Solving for p, Initial residual = 8.0376276e-05, Final residual = 9.9109464e-07, No Iterations 57
time step continuity errors : sum local = 6.383131e-12, global = -5.8376188e-13, cumulative = -8.9536357e-08
ExecutionTime = 20.12 s  ClockTime = 20 s

Time = 2.4

Courant Number mean: 0.00055181597 max: 0.10324547
smoothSolver:  Solving for Ux, Initial residual = 0.0011529334, Final residual = 8.1269983e-08, No Iterations 1
smoothSolver:  Solving for Uy, Initial residual = 0.0017186195, Final residual = 1.2711103e-07, No Iterations 1
smoothSolver:  Solving for Uz, Initial residual = 0.0016422586, Final residual = 1.1793678e-07, No Iterations 1
DICPCG:  Solving for p, Initial residual = 0.017429395, Final residual = 0.0005788957, No Iterations 2
DICPCG:  Solving for p, Initial residual = 0.0026182163, Final residual = 0.00012521907, No Iterations 14
DICPCG:  Solving for p, Initial residual = 0.00067912197, Final residual = 3.1916557e-05, No Iterations 22
time step continuity errors : sum local = 1.9908983e-10, global = 9.1577375e-11, cumulative = -8.9444779e-08
DICPCG:  Solving for p, Initial residual = 0.00030119881, Final residual = 1.4977255e-05, No Iterations 130
DICPCG:  Solving for p, Initial residual = 0.00031539161, Final residual = 1.5196054e-05, No Iterations 4
DICPCG:  Solving for p, Initial residual = 7.8124311e-05, Final residual = 9.9705481e-07, No Iterations 60
time step continuity errors : sum local = 6.2115609e-12, global = -5.6326635e-13, cumulative = -8.9445343e-08
ExecutionTime = 20.8 s  ClockTime = 21 s

Time = 2.5

Courant Number mean: 0.00055182398 max: 0.10325166
smoothSolver:  Solving for Ux, Initial residual = 0.0011132321, Final residual = 7.88074e-08, No Iterations 1
smoothSolver:  Solving for Uy, Initial residual = 0.0016600458, Final residual = 1.2425857e-07, No Iterations 1
smoothSolver:  Solving for Uz, Initial residual = 0.001585515, Final residual = 1.140583e-07, No Iterations 1
DICPCG:  Solving for p, Initial residual = 0.016773256, Final residual = 0.00055588618, No Iterations 2
DICPCG:  Solving for p, Initial residual = 0.0025086406, Final residual = 0.00011313205, No Iterations 15
DICPCG:  Solving for p, Initial residual = 0.00065364806, Final residual = 2.9055028e-05, No Iterations 22
time step continuity errors : sum local = 1.7554271e-10, global = 8.3861517e-11, cumulative = -8.9361481e-08
DICPCG:  Solving for p, Initial residual = 0.00028405967, Final residual = 1.4085187e-05, No Iterations 129
DICPCG:  Solving for p, Initial residual = 0.00029822653, Final residual = 1.4252145e-05, No Iterations 4
DICPCG:  Solving for p, Initial residual = 7.3944499e-05, Final residual = 9.9662087e-07, No Iterations 60
time step continuity errors : sum local = 6.0140795e-12, global = -5.807612e-13, cumulative = -8.9362062e-08
ExecutionTime = 21.7 s  ClockTime = 21 s

Time = 2.6

Courant Number mean: 0.0005518321 max: 0.10325748
smoothSolver:  Solving for Ux, Initial residual = 0.0010762993, Final residual = 7.6829739e-08, No Iterations 1
smoothSolver:  Solving for Uy, Initial residual = 0.0016057036, Final residual = 1.2162743e-07, No Iterations 1
smoothSolver:  Solving for Uz, Initial residual = 0.0015331371, Final residual = 1.105943e-07, No Iterations 1
DICPCG:  Solving for p, Initial residual = 0.016068488, Final residual = 0.00054716333, No Iterations 2
DICPCG:  Solving for p, Initial residual = 0.002394627, Final residual = 0.00011448661, No Iterations 15
DICPCG:  Solving for p, Initial residual = 0.00063987977, Final residual = 3.1937615e-05, No Iterations 129
time step continuity errors : sum local = 1.8718026e-10, global = 7.4588545e-13, cumulative = -8.9361316e-08
DICPCG:  Solving for p, Initial residual = 0.00043241555, Final residual = 2.004486e-05, No Iterations 6
DICPCG:  Solving for p, Initial residual = 0.00011556844, Final residual = 5.775498e-06, No Iterations 34
DICPCG:  Solving for p, Initial residual = 6.4454736e-05, Final residual = 9.2028867e-07, No Iterations 46
time step continuity errors : sum local = 5.3865748e-12, global = 4.1590683e-13, cumulative = -8.93609e-08
ExecutionTime = 22.43 s  ClockTime = 22 s

Time = 2.7

Courant Number mean: 0.00055184138 max: 0.10326347
smoothSolver:  Solving for Ux, Initial residual = 0.0010420022, Final residual = 7.4616188e-08, No Iterations 1
smoothSolver:  Solving for Uy, Initial residual = 0.0015559111, Final residual = 1.1920358e-07, No Iterations 1
smoothSolver:  Solving for Uz, Initial residual = 0.0014847852, Final residual = 1.0708803e-07, No Iterations 1
DICPCG:  Solving for p, Initial residual = 0.01557499, Final residual = 0.00052686722, No Iterations 2
DICPCG:  Solving for p, Initial residual = 0.0023177058, Final residual = 0.00010707113, No Iterations 16
DICPCG:  Solving for p, Initial residual = 0.00063843626, Final residual = 2.8510492e-05, No Iterations 130
time step continuity errors : sum local = 1.62269e-10, global = 6.9576845e-13, cumulative = -8.9360204e-08
DICPCG:  Solving for p, Initial residual = 0.00044235101, Final residual = 1.9720017e-05, No Iterations 6
DICPCG:  Solving for p, Initial residual = 0.00011569663, Final residual = 5.6695055e-06, No Iterations 37
DICPCG:  Solving for p, Initial residual = 6.5716706e-05, Final residual = 9.3092986e-07, No Iterations 47
time step continuity errors : sum local = 5.291322e-12, global = 2.125188e-13, cumulative = -8.9359992e-08
ExecutionTime = 23.22 s  ClockTime = 23 s

Time = 2.8

Courant Number mean: 0.00055185112 max: 0.10327377
smoothSolver:  Solving for Ux, Initial residual = 0.0010099676, Final residual = 7.2586301e-08, No Iterations 1
smoothSolver:  Solving for Uy, Initial residual = 0.0015092833, Final residual = 1.1640101e-07, No Iterations 1
smoothSolver:  Solving for Uz, Initial residual = 0.0014397724, Final residual = 1.0360632e-07, No Iterations 1
DICPCG:  Solving for p, Initial residual = 0.015001959, Final residual = 0.00051312669, No Iterations 2
DICPCG:  Solving for p, Initial residual = 0.0022270781, Final residual = 0.00010184681, No Iterations 16
DICPCG:  Solving for p, Initial residual = 0.00061977253, Final residual = 2.9798226e-05, No Iterations 129
time step continuity errors : sum local = 1.6488201e-10, global = 4.4800414e-13, cumulative = -8.9359544e-08
DICPCG:  Solving for p, Initial residual = 0.00043032581, Final residual = 1.9456932e-05, No Iterations 6
DICPCG:  Solving for p, Initial residual = 0.00011281064, Final residual = 5.3757966e-06, No Iterations 28
DICPCG:  Solving for p, Initial residual = 5.5352212e-05, Final residual = 9.8167021e-07, No Iterations 39
time step continuity errors : sum local = 5.4248695e-12, global = 3.3035369e-13, cumulative = -8.9359214e-08
ExecutionTime = 24.06 s  ClockTime = 24 s

Time = 2.9

Courant Number mean: 0.00055186066 max: 0.10328721
smoothSolver:  Solving for Ux, Initial residual = 0.00098005352, Final residual = 7.0989104e-08, No Iterations 1
smoothSolver:  Solving for Uy, Initial residual = 0.0014657996, Final residual = 1.1365157e-07, No Iterations 1
smoothSolver:  Solving for Uz, Initial residual = 0.0013973959, Final residual = 1.0025297e-07, No Iterations 1
DICPCG:  Solving for p, Initial residual = 0.01456543, Final residual = 0.00051118699, No Iterations 2
DICPCG:  Solving for p, Initial residual = 0.002140962, Final residual = 0.0001060509, No Iterations 15
DICPCG:  Solving for p, Initial residual = 0.00059944677, Final residual = 2.9035954e-05, No Iterations 129
time step continuity errors : sum local = 1.5633173e-10, global = 5.2526294e-13, cumulative = -8.9358688e-08
DICPCG:  Solving for p, Initial residual = 0.0004228113, Final residual = 1.9463827e-05, No Iterations 6
DICPCG:  Solving for p, Initial residual = 0.0001117053, Final residual = 5.4543104e-06, No Iterations 27
DICPCG:  Solving for p, Initial residual = 5.3930259e-05, Final residual = 9.6236469e-07, No Iterations 39
time step continuity errors : sum local = 5.1749492e-12, global = 2.3293905e-13, cumulative = -8.9358455e-08
ExecutionTime = 24.8 s  ClockTime = 25 s

Time = 3

Courant Number mean: 0.00055187031 max: 0.10330298
smoothSolver:  Solving for Ux, Initial residual = 0.00095194893, Final residual = 6.8890515e-08, No Iterations 1
smoothSolver:  Solving for Uy, Initial residual = 0.0014254013, Final residual = 1.1119788e-07, No Iterations 1
smoothSolver:  Solving for Uz, Initial residual = 0.0013575825, Final residual = 9.7083648e-08, No Iterations 1
DICPCG:  Solving for p, Initial residual = 0.013959687, Final residual = 0.00050072464, No Iterations 2
DICPCG:  Solving for p, Initial residual = 0.0020574692, Final residual = 9.9443135e-05, No Iterations 16
DICPCG:  Solving for p, Initial residual = 0.00059109219, Final residual = 2.8482041e-05, No Iterations 129
time step continuity errors : sum local = 1.4940584e-10, global = 5.553579e-13, cumulative = -8.93579e-08
DICPCG:  Solving for p, Initial residual = 0.00040073814, Final residual = 1.9574518e-05, No Iterations 6
DICPCG:  Solving for p, Initial residual = 0.00010721678, Final residual = 5.1087029e-06, No Iterations 32
DICPCG:  Solving for p, Initial residual = 5.8634817e-05, Final residual = 9.7462493e-07, No Iterations 47
time step continuity errors : sum local = 5.1067205e-12, global = 1.6304938e-13, cumulative = -8.9357737e-08
ExecutionTime = 25.75 s  ClockTime = 26 s

Time = 3.1

Courant Number mean: 0.00055188022 max: 0.10331934
smoothSolver:  Solving for Ux, Initial residual = 0.00092582943, Final residual = 6.7364583e-08, No Iterations 1
smoothSolver:  Solving for Uy, Initial residual = 0.0013870831, Final residual = 1.0924477e-07, No Iterations 1
smoothSolver:  Solving for Uz, Initial residual = 0.0013201067, Final residual = 9.4068173e-08, No Iterations 1
DICPCG:  Solving for p, Initial residual = 0.013483126, Final residual = 0.0004870167, No Iterations 2
DICPCG:  Solving for p, Initial residual = 0.0019931544, Final residual = 9.7051103e-05, No Iterations 18
DICPCG:  Solving for p, Initial residual = 0.00058738967, Final residual = 2.888713e-05, No Iterations 128
time step continuity errors : sum local = 1.4779947e-10, global = 5.353074e-13, cumulative = -8.9357202e-08
DICPCG:  Solving for p, Initial residual = 0.00039843494, Final residual = 1.7626437e-05, No Iterations 9
DICPCG:  Solving for p, Initial residual = 0.00010978206, Final residual = 5.1028358e-06, No Iterations 37
DICPCG:  Solving for p, Initial residual = 6.8494397e-05, Final residual = 9.218605e-07, No Iterations 51
time step continuity errors : sum local = 4.7114527e-12, global = 1.8938341e-13, cumulative = -8.9357012e-08
ExecutionTime = 26.6 s  ClockTime = 26 s

Time = 3.2

Courant Number mean: 0.00055189044 max: 0.10333213
smoothSolver:  Solving for Ux, Initial residual = 0.00090154694, Final residual = 6.5713076e-08, No Iterations 1
smoothSolver:  Solving for Uy, Initial residual = 0.0013509869, Final residual = 1.067895e-07, No Iterations 1
smoothSolver:  Solving for Uz, Initial residual = 0.0012844816, Final residual = 9.1160797e-08, No Iterations 1
DICPCG:  Solving for p, Initial residual = 0.013050648, Final residual = 0.00046062921, No Iterations 2
DICPCG:  Solving for p, Initial residual = 0.001914155, Final residual = 9.2621223e-05, No Iterations 18
DICPCG:  Solving for p, Initial residual = 0.00057000377, Final residual = 2.7743736e-05, No Iterations 136
time step continuity errors : sum local = 1.3859099e-10, global = 3.7340508e-13, cumulative = -8.9356639e-08
DICPCG:  Solving for p, Initial residual = 0.0003812569, Final residual = 1.8389406e-05, No Iterations 6
DICPCG:  Solving for p, Initial residual = 0.00010191694, Final residual = 4.9116623e-06, No Iterations 39
DICPCG:  Solving for p, Initial residual = 6.2653031e-05, Final residual = 9.7558401e-07, No Iterations 50
time step continuity errors : sum local = 4.8681709e-12, global = -1.970301e-14, cumulative = -8.9356659e-08
ExecutionTime = 27.35 s  ClockTime = 27 s

Time = 3.3

Courant Number mean: 0.00055190106 max: 0.10334279
smoothSolver:  Solving for Ux, Initial residual = 0.00087864398, Final residual = 6.4057538e-08, No Iterations 1
smoothSolver:  Solving for Uy, Initial residual = 0.0013169099, Final residual = 1.0419796e-07, No Iterations 1
smoothSolver:  Solving for Uz, Initial residual = 0.0012510515, Final residual = 8.8775612e-08, No Iterations 1
DICPCG:  Solving for p, Initial residual = 0.012606256, Final residual = 0.00045457148, No Iterations 2
DICPCG:  Solving for p, Initial residual = 0.0018433194, Final residual = 8.9435642e-05, No Iterations 19
DICPCG:  Solving for p, Initial residual = 0.00055935885, Final residual = 2.7729936e-05, No Iterations 130
time step continuity errors : sum local = 1.353747e-10, global = 8.7469408e-13, cumulative = -8.9355784e-08
DICPCG:  Solving for p, Initial residual = 0.00038485742, Final residual = 1.867908e-05, No Iterations 9
DICPCG:  Solving for p, Initial residual = 0.00010584829, Final residual = 5.2288081e-06, No Iterations 38
DICPCG:  Solving for p, Initial residual = 7.2494005e-05, Final residual = 9.6899169e-07, No Iterations 61
time step continuity errors : sum local = 4.7255508e-12, global = 8.1005168e-14, cumulative = -8.9355703e-08
ExecutionTime = 28.31 s  ClockTime = 28 s

Time = 3.4

Courant Number mean: 0.00055191198 max: 0.10335525
smoothSolver:  Solving for Ux, Initial residual = 0.00085710453, Final residual = 6.2386605e-08, No Iterations 1
smoothSolver:  Solving for Uy, Initial residual = 0.0012849732, Final residual = 1.0160946e-07, No Iterations 1
smoothSolver:  Solving for Uz, Initial residual = 0.0012196979, Final residual = 8.6630511e-08, No Iterations 1
DICPCG:  Solving for p, Initial residual = 0.012194909, Final residual = 0.00043980437, No Iterations 2
DICPCG:  Solving for p, Initial residual = 0.0017847642, Final residual = 8.7120287e-05, No Iterations 19
DICPCG:  Solving for p, Initial residual = 0.00054112271, Final residual = 2.5913342e-05, No Iterations 130
time step continuity errors : sum local = 1.2372289e-10, global = 7.4232124e-13, cumulative = -8.9354961e-08
DICPCG:  Solving for p, Initial residual = 0.00038075544, Final residual = 1.719109e-05, No Iterations 9
DICPCG:  Solving for p, Initial residual = 0.00010326947, Final residual = 5.1450375e-06, No Iterations 37
DICPCG:  Solving for p, Initial residual = 6.9054994e-05, Final residual = 9.9876832e-07, No Iterations 52
time step continuity errors : sum local = 4.7636004e-12, global = -2.4241899e-14, cumulative = -8.9354985e-08
ExecutionTime = 29.13 s  ClockTime = 29 s

Time = 3.5

Courant Number mean: 0.00055192289 max: 0.10336865
smoothSolver:  Solving for Ux, Initial residual = 0.0008369676, Final residual = 6.0871949e-08, No Iterations 1
smoothSolver:  Solving for Uy, Initial residual = 0.0012547009, Final residual = 9.9519862e-08, No Iterations 1
smoothSolver:  Solving for Uz, Initial residual = 0.00118996, Final residual = 8.4233624e-08, No Iterations 1
DICPCG:  Solving for p, Initial residual = 0.011818712, Final residual = 0.00044350651, No Iterations 2
DICPCG:  Solving for p, Initial residual = 0.0017215883, Final residual = 8.2300786e-05, No Iterations 20
DICPCG:  Solving for p, Initial residual = 0.00053708865, Final residual = 2.6138873e-05, No Iterations 129
time step continuity errors : sum local = 1.2214661e-10, global = 8.0221999e-13, cumulative = -8.9354183e-08
DICPCG:  Solving for p, Initial residual = 0.00037911495, Final residual = 1.8784095e-05, No Iterations 6
DICPCG:  Solving for p, Initial residual = 0.00010028039, Final residual = 4.7118833e-06, No Iterations 42
DICPCG:  Solving for p, Initial residual = 7.2595722e-05, Final residual = 9.409651e-07, No Iterations 61
time step continuity errors : sum local = 4.3924161e-12, global = -2.0789926e-13, cumulative = -8.935439e-08
ExecutionTime = 30.19 s  ClockTime = 30 s

Time = 3.6

Courant Number mean: 0.00055193386 max: 0.10338289
smoothSolver:  Solving for Ux, Initial residual = 0.00081783591, Final residual = 5.9198633e-08, No Iterations 1
smoothSolver:  Solving for Uy, Initial residual = 0.00122642, Final residual = 9.7478392e-08, No Iterations 1
smoothSolver:  Solving for Uz, Initial residual = 0.0011615473, Final residual = 8.1900476e-08, No Iterations 1
DICPCG:  Solving for p, Initial residual = 0.011512938, Final residual = 0.00045686479, No Iterations 2
DICPCG:  Solving for p, Initial residual = 0.0016865191, Final residual = 8.180709e-05, No Iterations 20
DICPCG:  Solving for p, Initial residual = 0.00053195546, Final residual = 2.6302893e-05, No Iterations 137
time step continuity errors : sum local = 1.2037803e-10, global = 2.3175823e-13, cumulative = -8.9354159e-08
DICPCG:  Solving for p, Initial residual = 0.00035185001, Final residual = 1.5471644e-05, No Iterations 9
DICPCG:  Solving for p, Initial residual = 9.7418142e-05, Final residual = 4.7622817e-06, No Iterations 35
DICPCG:  Solving for p, Initial residual = 5.1245923e-05, Final residual = 9.216216e-07, No Iterations 51
time step continuity errors : sum local = 4.2138304e-12, global = -2.6581433e-13, cumulative = -8.9354424e-08
ExecutionTime = 31.18 s  ClockTime = 31 s

Time = 3.7

Courant Number mean: 0.00055194467 max: 0.10339823
smoothSolver:  Solving for Ux, Initial residual = 0.00079966828, Final residual = 5.7867451e-08, No Iterations 1
smoothSolver:  Solving for Uy, Initial residual = 0.0011996903, Final residual = 9.5822443e-08, No Iterations 1
smoothSolver:  Solving for Uz, Initial residual = 0.0011345172, Final residual = 7.9927122e-08, No Iterations 1
DICPCG:  Solving for p, Initial residual = 0.011166977, Final residual = 0.00043081317, No Iterations 2
DICPCG:  Solving for p, Initial residual = 0.0016359507, Final residual = 7.5951122e-05, No Iterations 20
DICPCG:  Solving for p, Initial residual = 0.00050974209, Final residual = 2.4853371e-05, No Iterations 127
time step continuity errors : sum local = 1.1149489e-10, global = 4.1631993e-13, cumulative = -8.9354008e-08
DICPCG:  Solving for p, Initial residual = 0.00036519244, Final residual = 1.7972779e-05, No Iterations 8
DICPCG:  Solving for p, Initial residual = 9.7760299e-05, Final residual = 4.426558e-06, No Iterations 41
DICPCG:  Solving for p, Initial residual = 6.3918548e-05, Final residual = 9.5452331e-07, No Iterations 50
time step continuity errors : sum local = 4.2777509e-12, global = -2.459566e-13, cumulative = -8.9354254e-08
ExecutionTime = 32.02 s  ClockTime = 32 s

Time = 3.8

Courant Number mean: 0.00055195532 max: 0.10341383
smoothSolver:  Solving for Ux, Initial residual = 0.00078250575, Final residual = 5.658877e-08, No Iterations 1
smoothSolver:  Solving for Uy, Initial residual = 0.0011742197, Final residual = 9.4029755e-08, No Iterations 1
smoothSolver:  Solving for Uz, Initial residual = 0.0011090184, Final residual = 7.8021201e-08, No Iterations 1
DICPCG:  Solving for p, Initial residual = 0.010819148, Final residual = 0.00042101419, No Iterations 2
DICPCG:  Solving for p, Initial residual = 0.0015824674, Final residual = 7.5270498e-05, No Iterations 20
DICPCG:  Solving for p, Initial residual = 0.00050030127, Final residual = 2.4803613e-05, No Iterations 129
time step continuity errors : sum local = 1.0915161e-10, global = 7.2670128e-13, cumulative = -8.9353527e-08
DICPCG:  Solving for p, Initial residual = 0.00035391115, Final residual = 1.6224958e-05, No Iterations 9
DICPCG:  Solving for p, Initial residual = 9.5609011e-05, Final residual = 4.4767885e-06, No Iterations 38
DICPCG:  Solving for p, Initial residual = 6.4834422e-05, Final residual = 9.853408e-07, No Iterations 51
time step continuity errors : sum local = 4.3319286e-12, global = -1.8270857e-13, cumulative = -8.935371e-08
ExecutionTime = 32.84 s  ClockTime = 33 s

Time = 3.9

Courant Number mean: 0.00055196589 max: 0.10342925
smoothSolver:  Solving for Ux, Initial residual = 0.00076623068, Final residual = 5.5277412e-08, No Iterations 1
smoothSolver:  Solving for Uy, Initial residual = 0.0011498911, Final residual = 9.1944139e-08, No Iterations 1
smoothSolver:  Solving for Uz, Initial residual = 0.0010846183, Final residual = 7.6352678e-08, No Iterations 1
DICPCG:  Solving for p, Initial residual = 0.010638849, Final residual = 0.00042139799, No Iterations 2
DICPCG:  Solving for p, Initial residual = 0.0015651928, Final residual = 7.5647509e-05, No Iterations 20
DICPCG:  Solving for p, Initial residual = 0.00050288111, Final residual = 2.4845583e-05, No Iterations 129
time step continuity errors : sum local = 1.0729611e-10, global = 6.9791659e-13, cumulative = -8.9353012e-08
DICPCG:  Solving for p, Initial residual = 0.00034301942, Final residual = 1.6254567e-05, No Iterations 9
DICPCG:  Solving for p, Initial residual = 9.3671554e-05, Final residual = 4.5917592e-06, No Iterations 39
DICPCG:  Solving for p, Initial residual = 6.5308954e-05, Final residual = 8.6679705e-07, No Iterations 61
time step continuity errors : sum local = 3.7398462e-12, global = -1.3907011e-13, cumulative = -8.9353151e-08
ExecutionTime = 33.69 s  ClockTime = 34 s

Time = 4

Courant Number mean: 0.0005519762 max: 0.10344559
smoothSolver:  Solving for Ux, Initial residual = 0.00075075497, Final residual = 5.3957178e-08, No Iterations 1
smoothSolver:  Solving for Uy, Initial residual = 0.0011267591, Final residual = 8.9917012e-08, No Iterations 1
smoothSolver:  Solving for Uz, Initial residual = 0.001061316, Final residual = 7.4567738e-08, No Iterations 1
DICPCG:  Solving for p, Initial residual = 0.010326119, Final residual = 0.00043808727, No Iterations 2
DICPCG:  Solving for p, Initial residual = 0.0015184114, Final residual = 7.4940431e-05, No Iterations 20
DICPCG:  Solving for p, Initial residual = 0.00049722885, Final residual = 2.4507625e-05, No Iterations 137
time step continuity errors : sum local = 1.0395162e-10, global = 1.9092461e-13, cumulative = -8.935296e-08
DICPCG:  Solving for p, Initial residual = 0.00031198458, Final residual = 1.4419889e-05, No Iterations 9
DICPCG:  Solving for p, Initial residual = 8.7622888e-05, Final residual = 4.2038552e-06, No Iterations 37
DICPCG:  Solving for p, Initial residual = 4.98305e-05, Final residual = 9.2794651e-07, No Iterations 51
time step continuity errors : sum local = 3.9328883e-12, global = -1.8344671e-13, cumulative = -8.9353144e-08
ExecutionTime = 34.79 s  ClockTime = 35 s

Time = 4.1

Courant Number mean: 0.00055198645 max: 0.10346321
smoothSolver:  Solving for Ux, Initial residual = 0.00073638591, Final residual = 5.2917918e-08, No Iterations 1
smoothSolver:  Solving for Uy, Initial residual = 0.0011047099, Final residual = 8.8096751e-08, No Iterations 1
smoothSolver:  Solving for Uz, Initial residual = 0.001038746, Final residual = 7.2612331e-08, No Iterations 1
DICPCG:  Solving for p, Initial residual = 0.010167424, Final residual = 0.0004256378, No Iterations 2
DICPCG:  Solving for p, Initial residual = 0.0015038938, Final residual = 6.7241384e-05, No Iterations 21
DICPCG:  Solving for p, Initial residual = 0.0004957319, Final residual = 2.356288e-05, No Iterations 16
time step continuity errors : sum local = 9.8220102e-11, global = 4.1883487e-11, cumulative = -8.931126e-08
DICPCG:  Solving for p, Initial residual = 0.00019710804, Final residual = 9.5366891e-06, No Iterations 145
DICPCG:  Solving for p, Initial residual = 0.00021369477, Final residual = 9.7247813e-06, No Iterations 4
DICPCG:  Solving for p, Initial residual = 5.2943256e-05, Final residual = 9.7675616e-07, No Iterations 49
time step continuity errors : sum local = 4.0684769e-12, global = -2.4825234e-13, cumulative = -8.9311509e-08
ExecutionTime = 35.67 s  ClockTime = 36 s

Time = 4.2

Courant Number mean: 0.00055199663 max: 0.10348193
smoothSolver:  Solving for Ux, Initial residual = 0.00072238284, Final residual = 5.1617887e-08, No Iterations 1
smoothSolver:  Solving for Uy, Initial residual = 0.0010836314, Final residual = 8.662352e-08, No Iterations 1
smoothSolver:  Solving for Uz, Initial residual = 0.0010170482, Final residual = 7.1003358e-08, No Iterations 1
DICPCG:  Solving for p, Initial residual = 0.0099629953, Final residual = 0.00038700047, No Iterations 2
DICPCG:  Solving for p, Initial residual = 0.0014519909, Final residual = 6.6176928e-05, No Iterations 21
DICPCG:  Solving for p, Initial residual = 0.00048548907, Final residual = 2.3261809e-05, No Iterations 16
time step continuity errors : sum local = 9.5323547e-11, global = 4.2084897e-11, cumulative = -8.9269424e-08
DICPCG:  Solving for p, Initial residual = 0.00019469855, Final residual = 9.5635981e-06, No Iterations 145
DICPCG:  Solving for p, Initial residual = 0.00021648179, Final residual = 9.8312011e-06, No Iterations 4
DICPCG:  Solving for p, Initial residual = 5.3531271e-05, Final residual = 9.8773104e-07, No Iterations 48
time step continuity errors : sum local = 4.0444795e-12, global = -2.5700758e-13, cumulative = -8.9269681e-08
ExecutionTime = 36.47 s  ClockTime = 37 s

Time = 4.3

Courant Number mean: 0.00055200731 max: 0.10350134
smoothSolver:  Solving for Ux, Initial residual = 0.00070889055, Final residual = 5.0242569e-08, No Iterations 1
smoothSolver:  Solving for Uy, Initial residual = 0.0010633742, Final residual = 8.4820866e-08, No Iterations 1
smoothSolver:  Solving for Uz, Initial residual = 0.00099673213, Final residual = 6.949441e-08, No Iterations 1
DICPCG:  Solving for p, Initial residual = 0.0096508933, Final residual = 0.00041399608, No Iterations 2
DICPCG:  Solving for p, Initial residual = 0.0014285011, Final residual = 7.1044049e-05, No Iterations 20
DICPCG:  Solving for p, Initial residual = 0.00047413306, Final residual = 2.357697e-05, No Iterations 127
time step continuity errors : sum local = 9.504568e-11, global = 3.3304443e-13, cumulative = -8.9269348e-08
DICPCG:  Solving for p, Initial residual = 0.00031631556, Final residual = 1.4965861e-05, No Iterations 9
DICPCG:  Solving for p, Initial residual = 8.6441291e-05, Final residual = 4.2318878e-06, No Iterations 39
DICPCG:  Solving for p, Initial residual = 5.9123078e-05, Final residual = 8.9126309e-07, No Iterations 61
time step continuity errors : sum local = 3.5901202e-12, global = -2.138655e-13, cumulative = -8.9269562e-08
ExecutionTime = 37.36 s  ClockTime = 38 s

Time = 4.4

Courant Number mean: 0.00055201859 max: 0.10352049
smoothSolver:  Solving for Ux, Initial residual = 0.00069601204, Final residual = 4.8861306e-08, No Iterations 1
smoothSolver:  Solving for Uy, Initial residual = 0.0010442269, Final residual = 8.2948681e-08, No Iterations 1
smoothSolver:  Solving for Uz, Initial residual = 0.00097715602, Final residual = 6.8098649e-08, No Iterations 1
DICPCG:  Solving for p, Initial residual = 0.0094307776, Final residual = 0.00040671635, No Iterations 2
DICPCG:  Solving for p, Initial residual = 0.0014079792, Final residual = 6.5925677e-05, No Iterations 21
DICPCG:  Solving for p, Initial residual = 0.0004785558, Final residual = 2.3767868e-05, No Iterations 125
time step continuity errors : sum local = 9.4300914e-11, global = 6.5220542e-13, cumulative = -8.9268909e-08
DICPCG:  Solving for p, Initial residual = 0.00032180499, Final residual = 1.6082012e-05, No Iterations 8
DICPCG:  Solving for p, Initial residual = 8.7941191e-05, Final residual = 3.8882662e-06, No Iterations 42
DICPCG:  Solving for p, Initial residual = 5.8155493e-05, Final residual = 9.6839922e-07, No Iterations 60
time step continuity errors : sum local = 3.8390255e-12, global = -3.2938591e-13, cumulative = -8.9269239e-08
ExecutionTime = 38.19 s  ClockTime = 38 s

Time = 4.5

Courant Number mean: 0.00055202999 max: 0.10353887
smoothSolver:  Solving for Ux, Initial residual = 0.00068358879, Final residual = 4.7444274e-08, No Iterations 1
smoothSolver:  Solving for Uy, Initial residual = 0.0010259588, Final residual = 8.0514955e-08, No Iterations 1
smoothSolver:  Solving for Uz, Initial residual = 0.00095851311, Final residual = 6.6029062e-08, No Iterations 1
DICPCG:  Solving for p, Initial residual = 0.0092329429, Final residual = 0.00037330004, No Iterations 2
DICPCG:  Solving for p, Initial residual = 0.001357306, Final residual = 6.4143867e-05, No Iterations 21
DICPCG:  Solving for p, Initial residual = 0.00046404447, Final residual = 2.3104278e-05, No Iterations 125
time step continuity errors : sum local = 9.0252512e-11, global = 6.2833796e-13, cumulative = -8.926861e-08
DICPCG:  Solving for p, Initial residual = 0.00030935605, Final residual = 1.5399285e-05, No Iterations 8
DICPCG:  Solving for p, Initial residual = 8.4888407e-05, Final residual = 3.9750697e-06, No Iterations 41
DICPCG:  Solving for p, Initial residual = 5.3675633e-05, Final residual = 9.8850739e-07, No Iterations 49
time step continuity errors : sum local = 3.8584284e-12, global = -2.8677636e-13, cumulative = -8.9268897e-08
ExecutionTime = 39.26 s  ClockTime = 40 s

Time = 4.6

Courant Number mean: 0.00055204131 max: 0.10355742
smoothSolver:  Solving for Ux, Initial residual = 0.00067186076, Final residual = 4.6408493e-08, No Iterations 1
smoothSolver:  Solving for Uy, Initial residual = 0.0010084676, Final residual = 7.859069e-08, No Iterations 1
smoothSolver:  Solving for Uz, Initial residual = 0.00094068992, Final residual = 6.446189e-08, No Iterations 1
DICPCG:  Solving for p, Initial residual = 0.0090321857, Final residual = 0.00040027217, No Iterations 2
DICPCG:  Solving for p, Initial residual = 0.0013465549, Final residual = 6.4304884e-05, No Iterations 21
DICPCG:  Solving for p, Initial residual = 0.00046946789, Final residual = 2.1846569e-05, No Iterations 126
time step continuity errors : sum local = 8.4076138e-11, global = 5.3278045e-13, cumulative = -8.9268364e-08
DICPCG:  Solving for p, Initial residual = 0.00031684248, Final residual = 1.509156e-05, No Iterations 8
DICPCG:  Solving for p, Initial residual = 8.6100009e-05, Final residual = 3.8194037e-06, No Iterations 42
DICPCG:  Solving for p, Initial residual = 5.7913376e-05, Final residual = 9.6425005e-07, No Iterations 60
time step continuity errors : sum local = 3.7079048e-12, global = -2.8873054e-13, cumulative = -8.9268653e-08
ExecutionTime = 40.15 s  ClockTime = 40 s

Time = 4.7

Courant Number mean: 0.00055205261 max: 0.10357664
smoothSolver:  Solving for Ux, Initial residual = 0.0006606696, Final residual = 4.5310238e-08, No Iterations 1
smoothSolver:  Solving for Uy, Initial residual = 0.00099186341, Final residual = 7.6495458e-08, No Iterations 1
smoothSolver:  Solving for Uz, Initial residual = 0.00092359128, Final residual = 6.2985683e-08, No Iterations 1
DICPCG:  Solving for p, Initial residual = 0.0089132209, Final residual = 0.00040252112, No Iterations 2
DICPCG:  Solving for p, Initial residual = 0.0013394523, Final residual = 6.3381051e-05, No Iterations 21
DICPCG:  Solving for p, Initial residual = 0.00047218383, Final residual = 2.3116946e-05, No Iterations 125
time step continuity errors : sum local = 8.7678909e-11, global = 6.4389125e-13, cumulative = -8.9268009e-08
DICPCG:  Solving for p, Initial residual = 0.00031253346, Final residual = 1.5608234e-05, No Iterations 7
DICPCG:  Solving for p, Initial residual = 8.5021505e-05, Final residual = 4.2350302e-06, No Iterations 32
DICPCG:  Solving for p, Initial residual = 4.9223954e-05, Final residual = 9.8595798e-07, No Iterations 48
time step continuity errors : sum local = 3.7366557e-12, global = -3.9671957e-13, cumulative = -8.9268406e-08
ExecutionTime = 40.94 s  ClockTime = 41 s

Time = 4.8

Courant Number mean: 0.00055206427 max: 0.10359673
smoothSolver:  Solving for Ux, Initial residual = 0.00064995728, Final residual = 4.4374217e-08, No Iterations 1
smoothSolver:  Solving for Uy, Initial residual = 0.0009760481, Final residual = 7.4650316e-08, No Iterations 1
smoothSolver:  Solving for Uz, Initial residual = 0.00090735527, Final residual = 6.146326e-08, No Iterations 1
DICPCG:  Solving for p, Initial residual = 0.0087517981, Final residual = 0.0003911164, No Iterations 2
DICPCG:  Solving for p, Initial residual = 0.0013145593, Final residual = 6.2716341e-05, No Iterations 21
DICPCG:  Solving for p, Initial residual = 0.00046318997, Final residual = 2.2929614e-05, No Iterations 125
time step continuity errors : sum local = 8.5728181e-11, global = 5.429335e-13, cumulative = -8.9267863e-08
DICPCG:  Solving for p, Initial residual = 0.0003281322, Final residual = 1.6105913e-05, No Iterations 6
DICPCG:  Solving for p, Initial residual = 8.8311327e-05, Final residual = 4.1555545e-06, No Iterations 29
DICPCG:  Solving for p, Initial residual = 4.4576608e-05, Final residual = 9.9356359e-07, No Iterations 43
time step continuity errors : sum local = 3.7113763e-12, global = -4.8228242e-13, cumulative = -8.9268345e-08
ExecutionTime = 41.71 s  ClockTime = 42 s

Time = 4.9

Courant Number mean: 0.00055207696 max: 0.10361782
smoothSolver:  Solving for Ux, Initial residual = 0.00063945455, Final residual = 4.3585246e-08, No Iterations 1
smoothSolver:  Solving for Uy, Initial residual = 0.00096083147, Final residual = 7.2892402e-08, No Iterations 1
smoothSolver:  Solving for Uz, Initial residual = 0.00089196561, Final residual = 6.0151479e-08, No Iterations 1
DICPCG:  Solving for p, Initial residual = 0.0085936618, Final residual = 0.0003744973, No Iterations 2
DICPCG:  Solving for p, Initial residual = 0.0012982613, Final residual = 6.1409668e-05, No Iterations 21
DICPCG:  Solving for p, Initial residual = 0.00045597411, Final residual = 2.1237104e-05, No Iterations 125
time step continuity errors : sum local = 7.8286734e-11, global = 5.267643e-13, cumulative = -8.9267818e-08
DICPCG:  Solving for p, Initial residual = 0.00030093179, Final residual = 1.4574749e-05, No Iterations 7
DICPCG:  Solving for p, Initial residual = 8.2209984e-05, Final residual = 4.0408834e-06, No Iterations 24
DICPCG:  Solving for p, Initial residual = 3.906767e-05, Final residual = 9.9757086e-07, No Iterations 36
time step continuity errors : sum local = 3.6744902e-12, global = -4.304761e-13, cumulative = -8.9268249e-08
ExecutionTime = 42.44 s  ClockTime = 43 s

Time = 5

Courant Number mean: 0.00055208978 max: 0.10364014
smoothSolver:  Solving for Ux, Initial residual = 0.00062957647, Final residual = 4.2911483e-08, No Iterations 1
smoothSolver:  Solving for Uy, Initial residual = 0.0009462541, Final residual = 7.1208556e-08, No Iterations 1
smoothSolver:  Solving for Uz, Initial residual = 0.00087730018, Final residual = 5.8897719e-08, No Iterations 1
DICPCG:  Solving for p, Initial residual = 0.0083579583, Final residual = 0.00036156521, No Iterations 2
DICPCG:  Solving for p, Initial residual = 0.0012644998, Final residual = 6.0471519e-05, No Iterations 21
DICPCG:  Solving for p, Initial residual = 0.00045443094, Final residual = 2.1040667e-05, No Iterations 125
time step continuity errors : sum local = 7.6523922e-11, global = 5.2432554e-13, cumulative = -8.9267725e-08
DICPCG:  Solving for p, Initial residual = 0.00030434555, Final residual = 1.5190498e-05, No Iterations 7
DICPCG:  Solving for p, Initial residual = 8.2914392e-05, Final residual = 4.1285896e-06, No Iterations 24
DICPCG:  Solving for p, Initial residual = 3.9289575e-05, Final residual = 9.4650178e-07, No Iterations 36
time step continuity errors : sum local = 3.4396955e-12, global = -3.1427859e-13, cumulative = -8.9268039e-08
ExecutionTime = 43.49 s  ClockTime = 44 s

Time = 5.1

Courant Number mean: 0.00055210264 max: 0.1036591
smoothSolver:  Solving for Ux, Initial residual = 0.00061989579, Final residual = 4.2268102e-08, No Iterations 1
smoothSolver:  Solving for Uy, Initial residual = 0.00093219527, Final residual = 6.9500978e-08, No Iterations 1
smoothSolver:  Solving for Uz, Initial residual = 0.00086332653, Final residual = 5.7718401e-08, No Iterations 1
DICPCG:  Solving for p, Initial residual = 0.0081685888, Final residual = 0.0003534652, No Iterations 2
DICPCG:  Solving for p, Initial residual = 0.0012387128, Final residual = 6.0451325e-05, No Iterations 21
DICPCG:  Solving for p, Initial residual = 0.00044850451, Final residual = 2.1132284e-05, No Iterations 125
time step continuity errors : sum local = 7.5855241e-11, global = 5.047148e-13, cumulative = -8.9267534e-08
DICPCG:  Solving for p, Initial residual = 0.00030540416, Final residual = 1.4435346e-05, No Iterations 8
DICPCG:  Solving for p, Initial residual = 8.4193625e-05, Final residual = 4.1832936e-06, No Iterations 27
DICPCG:  Solving for p, Initial residual = 4.1448823e-05, Final residual = 9.8318921e-07, No Iterations 43
time step continuity errors : sum local = 3.5264499e-12, global = -3.9622502e-13, cumulative = -8.926793e-08
ExecutionTime = 44.25 s  ClockTime = 45 s

Time = 5.2

Courant Number mean: 0.00055211573 max: 0.10367392
smoothSolver:  Solving for Ux, Initial residual = 0.00061079621, Final residual = 4.1666399e-08, No Iterations 1
smoothSolver:  Solving for Uy, Initial residual = 0.00091863927, Final residual = 6.7919138e-08, No Iterations 1
smoothSolver:  Solving for Uz, Initial residual = 0.00085002949, Final residual = 5.6668376e-08, No Iterations 1
DICPCG:  Solving for p, Initial residual = 0.0079769784, Final residual = 0.00032087755, No Iterations 2
DICPCG:  Solving for p, Initial residual = 0.0011846462, Final residual = 5.9160385e-05, No Iterations 22
DICPCG:  Solving for p, Initial residual = 0.00042488772, Final residual = 2.0941413e-05, No Iterations 126
time step continuity errors : sum local = 7.4216929e-11, global = 3.0397012e-13, cumulative = -8.9267626e-08
DICPCG:  Solving for p, Initial residual = 0.0003030683, Final residual = 1.49708e-05, No Iterations 6
DICPCG:  Solving for p, Initial residual = 8.2368943e-05, Final residual = 4.06928e-06, No Iterations 38
DICPCG:  Solving for p, Initial residual = 4.9902906e-05, Final residual = 9.3832781e-07, No Iterations 48
time step continuity errors : sum local = 3.322807e-12, global = -4.2716191e-13, cumulative = -8.9268054e-08
ExecutionTime = 45.04 s  ClockTime = 45 s

Time = 5.3

Courant Number mean: 0.00055212919 max: 0.10368585
smoothSolver:  Solving for Ux, Initial residual = 0.0006018826, Final residual = 4.0940753e-08, No Iterations 1
smoothSolver:  Solving for Uy, Initial residual = 0.00090565601, Final residual = 6.6413165e-08, No Iterations 1
smoothSolver:  Solving for Uz, Initial residual = 0.00083719961, Final residual = 5.5709483e-08, No Iterations 1
DICPCG:  Solving for p, Initial residual = 0.0079222604, Final residual = 0.00028763581, No Iterations 2
DICPCG:  Solving for p, Initial residual = 0.0011563673, Final residual = 5.5124367e-05, No Iterations 23
DICPCG:  Solving for p, Initial residual = 0.00042817869, Final residual = 2.0923154e-05, No Iterations 129
time step continuity errors : sum local = 7.3226423e-11, global = 3.7033396e-13, cumulative = -8.9267683e-08
DICPCG:  Solving for p, Initial residual = 0.00031624184, Final residual = 1.4762021e-05, No Iterations 6
DICPCG:  Solving for p, Initial residual = 8.4281192e-05, Final residual = 4.1849687e-06, No Iterations 38
DICPCG:  Solving for p, Initial residual = 5.4430121e-05, Final residual = 9.4188474e-07, No Iterations 49
time step continuity errors : sum local = 3.2934701e-12, global = -5.1994592e-13, cumulative = -8.9268203e-08
ExecutionTime = 45.85 s  ClockTime = 46 s

Time = 5.4

Courant Number mean: 0.00055214273 max: 0.10369294
smoothSolver:  Solving for Ux, Initial residual = 0.00059303775, Final residual = 4.026565e-08, No Iterations 1
smoothSolver:  Solving for Uy, Initial residual = 0.00089284974, Final residual = 6.4688223e-08, No Iterations 1
smoothSolver:  Solving for Uz, Initial residual = 0.00082501424, Final residual = 5.5010408e-08, No Iterations 1
DICPCG:  Solving for p, Initial residual = 0.0076855766, Final residual = 0.00031905217, No Iterations 2
DICPCG:  Solving for p, Initial residual = 0.0011384973, Final residual = 5.4391235e-05, No Iterations 23
DICPCG:  Solving for p, Initial residual = 0.00041535262, Final residual = 1.9800482e-05, No Iterations 126
time step continuity errors : sum local = 6.845708e-11, global = 1.1352738e-13, cumulative = -8.926809e-08
DICPCG:  Solving for p, Initial residual = 0.00028987088, Final residual = 1.4341255e-05, No Iterations 6
DICPCG:  Solving for p, Initial residual = 7.8606806e-05, Final residual = 3.7985825e-06, No Iterations 38
DICPCG:  Solving for p, Initial residual = 4.8588643e-05, Final residual = 9.8683884e-07, No Iterations 47
time step continuity errors : sum local = 3.4092266e-12, global = -3.9305236e-13, cumulative = -8.9268483e-08
ExecutionTime = 46.62 s  ClockTime = 47 s

Time = 5.5

Courant Number mean: 0.00055215634 max: 0.10369849
smoothSolver:  Solving for Ux, Initial residual = 0.00058478231, Final residual = 3.9730075e-08, No Iterations 1
smoothSolver:  Solving for Uy, Initial residual = 0.00088056932, Final residual = 6.3041511e-08, No Iterations 1
smoothSolver:  Solving for Uz, Initial residual = 0.00081304725, Final residual = 5.4359318e-08, No Iterations 1
DICPCG:  Solving for p, Initial residual = 0.0075883603, Final residual = 0.00031045566, No Iterations 2
DICPCG:  Solving for p, Initial residual = 0.00114337, Final residual = 5.5033026e-05, No Iterations 23
DICPCG:  Solving for p, Initial residual = 0.00042885259, Final residual = 2.061002e-05, No Iterations 16
time step continuity errors : sum local = 7.0415135e-11, global = 3.5589818e-11, cumulative = -8.9232893e-08
DICPCG:  Solving for p, Initial residual = 0.00016697691, Final residual = 7.9052701e-06, No Iterations 131
DICPCG:  Solving for p, Initial residual = 0.00021469104, Final residual = 9.5758031e-06, No Iterations 4
DICPCG:  Solving for p, Initial residual = 5.2253742e-05, Final residual = 9.9038924e-07, No Iterations 43
time step continuity errors : sum local = 3.3812601e-12, global = -2.6327618e-13, cumulative = -8.9233156e-08
ExecutionTime = 47.6 s  ClockTime = 48 s

Time = 5.6

Courant Number mean: 0.0005521699 max: 0.10370341
smoothSolver:  Solving for Ux, Initial residual = 0.00057698833, Final residual = 3.9220724e-08, No Iterations 1
smoothSolver:  Solving for Uy, Initial residual = 0.00086868943, Final residual = 6.1433842e-08, No Iterations 1
smoothSolver:  Solving for Uz, Initial residual = 0.00080161034, Final residual = 5.3683735e-08, No Iterations 1
DICPCG:  Solving for p, Initial residual = 0.0073160834, Final residual = 0.00031312438, No Iterations 2
DICPCG:  Solving for p, Initial residual = 0.0010850653, Final residual = 4.9617074e-05, No Iterations 24
DICPCG:  Solving for p, Initial residual = 0.00039770565, Final residual = 1.9610777e-05, No Iterations 17
time step continuity errors : sum local = 6.624764e-11, global = 3.4211409e-11, cumulative = -8.9198945e-08
DICPCG:  Solving for p, Initial residual = 0.00015788565, Final residual = 7.7078707e-06, No Iterations 132
DICPCG:  Solving for p, Initial residual = 0.00020687531, Final residual = 9.1053937e-06, No Iterations 4
DICPCG:  Solving for p, Initial residual = 5.0034051e-05, Final residual = 9.61859e-07, No Iterations 46
time step continuity errors : sum local = 3.2469944e-12, global = -2.1329555e-13, cumulative = -8.9199158e-08
ExecutionTime = 48.38 s  ClockTime = 49 s

Time = 5.7

Courant Number mean: 0.00055218351 max: 0.10371008
smoothSolver:  Solving for Ux, Initial residual = 0.00056941119, Final residual = 3.8747828e-08, No Iterations 1
smoothSolver:  Solving for Uy, Initial residual = 0.0008574651, Final residual = 6.0002487e-08, No Iterations 1
smoothSolver:  Solving for Uz, Initial residual = 0.00079041781, Final residual = 5.296493e-08, No Iterations 1
DICPCG:  Solving for p, Initial residual = 0.0071792473, Final residual = 0.00032953855, No Iterations 2
DICPCG:  Solving for p, Initial residual = 0.0010717382, Final residual = 5.351925e-05, No Iterations 23
DICPCG:  Solving for p, Initial residual = 0.00040061492, Final residual = 1.9330034e-05, No Iterations 16
time step continuity errors : sum local = 6.4577844e-11, global = 3.261557e-11, cumulative = -8.9166543e-08
DICPCG:  Solving for p, Initial residual = 0.00015978456, Final residual = 7.7535676e-06, No Iterations 135
DICPCG:  Solving for p, Initial residual = 0.00019698652, Final residual = 8.8816896e-06, No Iterations 4
DICPCG:  Solving for p, Initial residual = 4.8145103e-05, Final residual = 9.1692129e-07, No Iterations 50
time step continuity errors : sum local = 3.0612043e-12, global = -1.8641396e-13, cumulative = -8.9166729e-08
ExecutionTime = 49.14 s  ClockTime = 50 s

Time = 5.8

Courant Number mean: 0.00055219732 max: 0.10372001
smoothSolver:  Solving for Ux, Initial residual = 0.00056215019, Final residual = 3.8296772e-08, No Iterations 1
smoothSolver:  Solving for Uy, Initial residual = 0.00084660237, Final residual = 5.8920799e-08, No Iterations 1
smoothSolver:  Solving for Uz, Initial residual = 0.00077961921, Final residual = 5.2090037e-08, No Iterations 1
DICPCG:  Solving for p, Initial residual = 0.0070925746, Final residual = 0.00032805207, No Iterations 2
DICPCG:  Solving for p, Initial residual = 0.0010627739, Final residual = 5.2917082e-05, No Iterations 23
DICPCG:  Solving for p, Initial residual = 0.00040075638, Final residual = 1.9154679e-05, No Iterations 16
time step continuity errors : sum local = 6.3306045e-11, global = 3.2316783e-11, cumulative = -8.9134412e-08
DICPCG:  Solving for p, Initial residual = 0.00015940443, Final residual = 7.5226508e-06, No Iterations 141
DICPCG:  Solving for p, Initial residual = 0.00019706422, Final residual = 8.738689e-06, No Iterations 4
DICPCG:  Solving for p, Initial residual = 4.7968207e-05, Final residual = 9.9641442e-07, No Iterations 46
time step continuity errors : sum local = 3.2909429e-12, global = -2.0428202e-13, cumulative = -8.9134616e-08
ExecutionTime = 49.9 s  ClockTime = 50 s

Time = 5.9

Courant Number mean: 0.0005522113 max: 0.10373321
smoothSolver:  Solving for Ux, Initial residual = 0.00055506528, Final residual = 3.7793312e-08, No Iterations 1
smoothSolver:  Solving for Uy, Initial residual = 0.0008361323, Final residual = 5.7824868e-08, No Iterations 1
smoothSolver:  Solving for Uz, Initial residual = 0.00076920814, Final residual = 5.1343398e-08, No Iterations 1
DICPCG:  Solving for p, Initial residual = 0.0068791822, Final residual = 0.00032526081, No Iterations 2
DICPCG:  Solving for p, Initial residual = 0.0010232469, Final residual = 4.7867611e-05, No Iterations 24
DICPCG:  Solving for p, Initial residual = 0.00039000762, Final residual = 1.8167593e-05, No Iterations 16
time step continuity errors : sum local = 5.9417914e-11, global = 3.0196679e-11, cumulative = -8.910442e-08
DICPCG:  Solving for p, Initial residual = 0.00015326012, Final residual = 7.1612697e-06, No Iterations 135
DICPCG:  Solving for p, Initial residual = 0.00018946041, Final residual = 8.5180653e-06, No Iterations 4
DICPCG:  Solving for p, Initial residual = 4.6327615e-05, Final residual = 9.7246803e-07, No Iterations 48
time step continuity errors : sum local = 3.1784951e-12, global = -1.8534373e-13, cumulative = -8.9104605e-08
ExecutionTime = 50.66 s  ClockTime = 51 s

Time = 6

Courant Number mean: 0.00055222525 max: 0.1037496
smoothSolver:  Solving for Ux, Initial residual = 0.00054825297, Final residual = 3.7247726e-08, No Iterations 1
smoothSolver:  Solving for Uy, Initial residual = 0.00082588132, Final residual = 5.6945931e-08, No Iterations 1
smoothSolver:  Solving for Uz, Initial residual = 0.00075903882, Final residual = 5.0595377e-08, No Iterations 1
DICPCG:  Solving for p, Initial residual = 0.0067486414, Final residual = 0.00033156169, No Iterations 2
DICPCG:  Solving for p, Initial residual = 0.0010180421, Final residual = 4.7981593e-05, No Iterations 24
DICPCG:  Solving for p, Initial residual = 0.00039191206, Final residual = 1.8057025e-05, No Iterations 16
time step continuity errors : sum local = 5.8455985e-11, global = 2.9417537e-11, cumulative = -8.9075188e-08
DICPCG:  Solving for p, Initial residual = 0.00015487754, Final residual = 7.4221398e-06, No Iterations 130
DICPCG:  Solving for p, Initial residual = 0.00018709583, Final residual = 8.3156904e-06, No Iterations 4
DICPCG:  Solving for p, Initial residual = 4.5662495e-05, Final residual = 9.9916531e-07, No Iterations 36
time step continuity errors : sum local = 3.2326001e-12, global = -1.7452131e-13, cumulative = -8.9075362e-08
ExecutionTime = 51.66 s  ClockTime = 52 s

Time = 6.1

Courant Number mean: 0.00055223932 max: 0.10376859
smoothSolver:  Solving for Ux, Initial residual = 0.00054170842, Final residual = 3.6696865e-08, No Iterations 1
smoothSolver:  Solving for Uy, Initial residual = 0.00081593389, Final residual = 5.6170968e-08, No Iterations 1
smoothSolver:  Solving for Uz, Initial residual = 0.00074931962, Final residual = 4.9865195e-08, No Iterations 1
DICPCG:  Solving for p, Initial residual = 0.0067021798, Final residual = 0.00031589526, No Iterations 2
DICPCG:  Solving for p, Initial residual = 0.0010085769, Final residual = 4.7728036e-05, No Iterations 24
DICPCG:  Solving for p, Initial residual = 0.00039241775, Final residual = 1.9560247e-05, No Iterations 15
time step continuity errors : sum local = 6.2690215e-11, global = 2.8492484e-11, cumulative = -8.904687e-08
DICPCG:  Solving for p, Initial residual = 0.00015463925, Final residual = 7.6973171e-06, No Iterations 132
[...]
DICPCG:  Solving for p, Initial residual = 1.7598957e-05, Final residual = 9.4640835e-07, No Iterations 127
DICPCG:  Solving for p, Initial residual = 1.4875286e-05, Final residual = 8.1516143e-07, No Iterations 4
time step continuity errors : sum local = 1.5849687e-12, global = -7.0300937e-15, cumulative = -8.8295751e-08
ExecutionTime = 148.33 s  ClockTime = 151 s

Time = 18.6

Courant Number mean: 0.00055480091 max: 0.10229442
smoothSolver:  Solving for Ux, Initial residual = 0.00028231477, Final residual = 1.0664057e-08, No Iterations 1
smoothSolver:  Solving for Uy, Initial residual = 0.00040475089, Final residual = 1.4305987e-08, No Iterations 1
smoothSolver:  Solving for Uz, Initial residual = 0.00038363496, Final residual = 1.4417384e-08, No Iterations 1
DICPCG:  Solving for p, Initial residual = 0.0019705488, Final residual = 8.8904183e-05, No Iterations 2
DICPCG:  Solving for p, Initial residual = 0.00030394005, Final residual = 1.4273303e-05, No Iterations 20
DICPCG:  Solving for p, Initial residual = 0.00011567479, Final residual = 5.1924406e-06, No Iterations 10
time step continuity errors : sum local = 1.0081085e-11, global = 1.7950759e-12, cumulative = -8.8293955e-08
DICPCG:  Solving for p, Initial residual = 4.0804458e-05, Final residual = 1.978285e-06, No Iterations 140
DICPCG:  Solving for p, Initial residual = 3.1247792e-05, Final residual = 1.5511953e-06, No Iterations 4
DICPCG:  Solving for p, Initial residual = 8.1802006e-06, Final residual = 9.8484587e-07, No Iterations 4
time step continuity errors : sum local = 1.9119433e-12, global = 1.5362033e-14, cumulative = -8.829394e-08
ExecutionTime = 149 s  ClockTime = 152 s

Time = 18.7

Courant Number mean: 0.00055482841 max: 0.10228745
smoothSolver:  Solving for Ux, Initial residual = 0.00028172499, Final residual = 1.0604537e-08, No Iterations 1
smoothSolver:  Solving for Uy, Initial residual = 0.00040365485, Final residual = 1.4173582e-08, No Iterations 1
smoothSolver:  Solving for Uz, Initial residual = 0.00038271564, Final residual = 1.424665e-08, No Iterations 1
DICPCG:  Solving for p, Initial residual = 0.0019459187, Final residual = 9.6105336e-05, No Iterations 2
DICPCG:  Solving for p, Initial residual = 0.0002999323, Final residual = 1.4360097e-05, No Iterations 18
DICPCG:  Solving for p, Initial residual = 0.00010998321, Final residual = 5.4838844e-06, No Iterations 10
time step continuity errors : sum local = 1.0630863e-11, global = 1.6213763e-12, cumulative = -8.8292319e-08
DICPCG:  Solving for p, Initial residual = 4.0473692e-05, Final residual = 1.9737731e-06, No Iterations 125
DICPCG:  Solving for p, Initial residual = 2.7221085e-05, Final residual = 1.2923034e-06, No Iterations 4
DICPCG:  Solving for p, Initial residual = 7.2316091e-06, Final residual = 9.5612514e-07, No Iterations 3
time step continuity errors : sum local = 1.8534242e-12, global = 1.093376e-14, cumulative = -8.8292308e-08
ExecutionTime = 149.64 s  ClockTime = 153 s

Time = 18.8

Courant Number mean: 0.00055485602 max: 0.10227968
smoothSolver:  Solving for Ux, Initial residual = 0.00028119215, Final residual = 1.0607665e-08, No Iterations 1
smoothSolver:  Solving for Uy, Initial residual = 0.00040265081, Final residual = 1.412032e-08, No Iterations 1
smoothSolver:  Solving for Uz, Initial residual = 0.00038182953, Final residual = 1.4117133e-08, No Iterations 1
DICPCG:  Solving for p, Initial residual = 0.0020366731, Final residual = 7.4096547e-05, No Iterations 3
DICPCG:  Solving for p, Initial residual = 0.00037256216, Final residual = 1.7286042e-05, No Iterations 21
DICPCG:  Solving for p, Initial residual = 0.00015563681, Final residual = 7.3323128e-06, No Iterations 11
time step continuity errors : sum local = 1.4190752e-11, global = 1.4255752e-12, cumulative = -8.8290882e-08
DICPCG:  Solving for p, Initial residual = 5.632713e-05, Final residual = 2.7543646e-06, No Iterations 127
DICPCG:  Solving for p, Initial residual = 3.821501e-05, Final residual = 1.871807e-06, No Iterations 5
DICPCG:  Solving for p, Initial residual = 1.0434643e-05, Final residual = 9.9472338e-07, No Iterations 10
time step continuity errors : sum local = 1.9250511e-12, global = 3.6240553e-15, cumulative = -8.8290879e-08
ExecutionTime = 150.31 s  ClockTime = 153 s

Time = 18.9

Courant Number mean: 0.00055488374 max: 0.10227112
smoothSolver:  Solving for Ux, Initial residual = 0.00028041268, Final residual = 1.0604781e-08, No Iterations 1
smoothSolver:  Solving for Uy, Initial residual = 0.00040180703, Final residual = 1.4090297e-08, No Iterations 1
smoothSolver:  Solving for Uz, Initial residual = 0.00038120296, Final residual = 1.4035413e-08, No Iterations 1
DICPCG:  Solving for p, Initial residual = 0.001944228, Final residual = 6.0509418e-05, No Iterations 3
DICPCG:  Solving for p, Initial residual = 0.00031581165, Final residual = 1.4686753e-05, No Iterations 21
DICPCG:  Solving for p, Initial residual = 0.00011740374, Final residual = 5.5881168e-06, No Iterations 11
time step continuity errors : sum local = 1.0798898e-11, global = 1.3913415e-12, cumulative = -8.8289487e-08
DICPCG:  Solving for p, Initial residual = 4.2838467e-05, Final residual = 2.1209929e-06, No Iterations 24
DICPCG:  Solving for p, Initial residual = 1.9219159e-05, Final residual = 9.4641409e-07, No Iterations 114
DICPCG:  Solving for p, Initial residual = 1.9758172e-05, Final residual = 8.3771801e-07, No Iterations 5
time step continuity errors : sum local = 1.6187973e-12, global = -7.008593e-15, cumulative = -8.8289494e-08
ExecutionTime = 151.02 s  ClockTime = 154 s

Time = 19

Courant Number mean: 0.00055491149 max: 0.10226183
smoothSolver:  Solving for Ux, Initial residual = 0.00027983873, Final residual = 1.0587345e-08, No Iterations 1
smoothSolver:  Solving for Uy, Initial residual = 0.00040086762, Final residual = 1.4047092e-08, No Iterations 1
smoothSolver:  Solving for Uz, Initial residual = 0.00038034193, Final residual = 1.3926535e-08, No Iterations 1
DICPCG:  Solving for p, Initial residual = 0.0019686473, Final residual = 9.5540915e-05, No Iterations 2
DICPCG:  Solving for p, Initial residual = 0.00033363491, Final residual = 1.4861485e-05, No Iterations 16
DICPCG:  Solving for p, Initial residual = 0.00012668398, Final residual = 5.8483532e-06, No Iterations 10
time step continuity errors : sum local = 1.1285526e-11, global = 1.8095808e-12, cumulative = -8.8287685e-08
DICPCG:  Solving for p, Initial residual = 4.5659747e-05, Final residual = 2.2758427e-06, No Iterations 135
DICPCG:  Solving for p, Initial residual = 3.1170915e-05, Final residual = 1.5078144e-06, No Iterations 5
DICPCG:  Solving for p, Initial residual = 8.9313092e-06, Final residual = 9.382487e-07, No Iterations 5
time step continuity errors : sum local = 1.8104138e-12, global = 2.3365437e-14, cumulative = -8.8287661e-08
ExecutionTime = 151.88 s  ClockTime = 155 s

Time = 19.1

Courant Number mean: 0.00055493939 max: 0.1022518
smoothSolver:  Solving for Ux, Initial residual = 0.00027938831, Final residual = 1.0576298e-08, No Iterations 1
smoothSolver:  Solving for Uy, Initial residual = 0.00040011883, Final residual = 1.4009588e-08, No Iterations 1
smoothSolver:  Solving for Uz, Initial residual = 0.00037947124, Final residual = 1.3826378e-08, No Iterations 1
DICPCG:  Solving for p, Initial residual = 0.0018964029, Final residual = 7.2667152e-05, No Iterations 3
DICPCG:  Solving for p, Initial residual = 0.0003263434, Final residual = 1.5081647e-05, No Iterations 22
DICPCG:  Solving for p, Initial residual = 0.00013279647, Final residual = 6.3921395e-06, No Iterations 12
time step continuity errors : sum local = 1.231461e-11, global = 9.2665047e-13, cumulative = -8.8286735e-08
DICPCG:  Solving for p, Initial residual = 4.8543865e-05, Final residual = 2.369767e-06, No Iterations 45
DICPCG:  Solving for p, Initial residual = 2.8121925e-05, Final residual = 1.3790297e-06, No Iterations 127
DICPCG:  Solving for p, Initial residual = 1.6534943e-05, Final residual = 8.4777052e-07, No Iterations 5
time step continuity errors : sum local = 1.6331823e-12, global = -5.5893081e-15, cumulative = -8.828674e-08
ExecutionTime = 152.68 s  ClockTime = 156 s

Time = 19.2

Courant Number mean: 0.00055496754 max: 0.1022411
smoothSolver:  Solving for Ux, Initial residual = 0.00027871455, Final residual = 1.0542499e-08, No Iterations 1
smoothSolver:  Solving for Uy, Initial residual = 0.0003988983, Final residual = 1.3970116e-08, No Iterations 1
smoothSolver:  Solving for Uz, Initial residual = 0.00037862464, Final residual = 1.374482e-08, No Iterations 1
DICPCG:  Solving for p, Initial residual = 0.0018839113, Final residual = 7.1858371e-05, No Iterations 3
DICPCG:  Solving for p, Initial residual = 0.00032017448, Final residual = 1.5009118e-05, No Iterations 22
DICPCG:  Solving for p, Initial residual = 0.00012573755, Final residual = 5.590528e-06, No Iterations 13
time step continuity errors : sum local = 1.0753165e-11, global = 1.044955e-12, cumulative = -8.8285695e-08
DICPCG:  Solving for p, Initial residual = 4.7573522e-05, Final residual = 2.2680191e-06, No Iterations 24
DICPCG:  Solving for p, Initial residual = 2.2645583e-05, Final residual = 1.0946639e-06, No Iterations 105
DICPCG:  Solving for p, Initial residual = 1.7075922e-05, Final residual = 9.8875161e-07, No Iterations 4
time step continuity errors : sum local = 1.9017492e-12, global = 1.8177524e-14, cumulative = -8.8285677e-08
ExecutionTime = 153.4 s  ClockTime = 156 s

Time = 19.3

Courant Number mean: 0.00055499619 max: 0.10222978
smoothSolver:  Solving for Ux, Initial residual = 0.00027809942, Final residual = 1.0503344e-08, No Iterations 1
smoothSolver:  Solving for Uy, Initial residual = 0.00039777511, Final residual = 1.3926484e-08, No Iterations 1
smoothSolver:  Solving for Uz, Initial residual = 0.00037782235, Final residual = 1.3673653e-08, No Iterations 1
DICPCG:  Solving for p, Initial residual = 0.0018731678, Final residual = 6.7882301e-05, No Iterations 3
DICPCG:  Solving for p, Initial residual = 0.00031624218, Final residual = 1.5650017e-05, No Iterations 21
DICPCG:  Solving for p, Initial residual = 0.00012163757, Final residual = 5.7007802e-06, No Iterations 11
time step continuity errors : sum local = 1.0949172e-11, global = 1.1385155e-12, cumulative = -8.8284539e-08
DICPCG:  Solving for p, Initial residual = 4.4649191e-05, Final residual = 2.209753e-06, No Iterations 23
DICPCG:  Solving for p, Initial residual = 2.0081424e-05, Final residual = 9.7584238e-07, No Iterations 105
DICPCG:  Solving for p, Initial residual = 1.7924242e-05, Final residual = 9.6471903e-07, No Iterations 4
time step continuity errors : sum local = 1.8528102e-12, global = 9.1438055e-15, cumulative = -8.8284529e-08
ExecutionTime = 154.11 s  ClockTime = 157 s

Time = 19.4

Courant Number mean: 0.000555025 max: 0.10221786
smoothSolver:  Solving for Ux, Initial residual = 0.00027752717, Final residual = 1.0460158e-08, No Iterations 1
smoothSolver:  Solving for Uy, Initial residual = 0.00039698697, Final residual = 1.3905406e-08, No Iterations 1
smoothSolver:  Solving for Uz, Initial residual = 0.0003771316, Final residual = 1.3582566e-08, No Iterations 1
DICPCG:  Solving for p, Initial residual = 0.0020565147, Final residual = 7.0553539e-05, No Iterations 3
DICPCG:  Solving for p, Initial residual = 0.00038783063, Final residual = 1.921984e-05, No Iterations 19
DICPCG:  Solving for p, Initial residual = 0.00014819863, Final residual = 7.3086907e-06, No Iterations 10
time step continuity errors : sum local = 1.4009654e-11, global = 7.3915681e-13, cumulative = -8.828379e-08
DICPCG:  Solving for p, Initial residual = 5.2938923e-05, Final residual = 2.4569091e-06, No Iterations 21
DICPCG:  Solving for p, Initial residual = 2.2751482e-05, Final residual = 1.0379358e-06, No Iterations 124
DICPCG:  Solving for p, Initial residual = 1.5009464e-05, Final residual = 9.2017044e-07, No Iterations 4
time step continuity errors : sum local = 1.7637659e-12, global = 1.382079e-14, cumulative = -8.8283777e-08
ExecutionTime = 154.8 s  ClockTime = 158 s

Time = 19.5

Courant Number mean: 0.00055505391 max: 0.10220537
smoothSolver:  Solving for Ux, Initial residual = 0.00027684168, Final residual = 1.0423541e-08, No Iterations 1
smoothSolver:  Solving for Uy, Initial residual = 0.00039579788, Final residual = 1.3871736e-08, No Iterations 1
smoothSolver:  Solving for Uz, Initial residual = 0.00037629947, Final residual = 1.3508859e-08, No Iterations 1
DICPCG:  Solving for p, Initial residual = 0.0019207918, Final residual = 7.8445694e-05, No Iterations 3
DICPCG:  Solving for p, Initial residual = 0.00035036556, Final residual = 1.7204331e-05, No Iterations 22
DICPCG:  Solving for p, Initial residual = 0.0001504882, Final residual = 7.0897083e-06, No Iterations 12
time step continuity errors : sum local = 1.3567183e-11, global = 1.0212746e-12, cumulative = -8.8282755e-08
DICPCG:  Solving for p, Initial residual = 5.4921745e-05, Final residual = 2.6343917e-06, No Iterations 47
DICPCG:  Solving for p, Initial residual = 3.0089937e-05, Final residual = 1.4575216e-06, No Iterations 128
DICPCG:  Solving for p, Initial residual = 1.8792074e-05, Final residual = 9.0870424e-07, No Iterations 5
time step continuity errors : sum local = 1.7388587e-12, global = -7.2951184e-15, cumulative = -8.8282763e-08
ExecutionTime = 155.76 s  ClockTime = 159 s

Time = 19.6

Courant Number mean: 0.00055508294 max: 0.10219233
smoothSolver:  Solving for Ux, Initial residual = 0.00027612482, Final residual = 1.0393288e-08, No Iterations 1
smoothSolver:  Solving for Uy, Initial residual = 0.00039469047, Final residual = 1.3817334e-08, No Iterations 1
smoothSolver:  Solving for Uz, Initial residual = 0.00037535208, Final residual = 1.3405646e-08, No Iterations 1
DICPCG:  Solving for p, Initial residual = 0.0018343369, Final residual = 6.7629619e-05, No Iterations 3
DICPCG:  Solving for p, Initial residual = 0.00032552772, Final residual = 1.5840781e-05, No Iterations 13
DICPCG:  Solving for p, Initial residual = 0.00011467411, Final residual = 5.6921615e-06, No Iterations 12
time step continuity errors : sum local = 1.0876405e-11, global = 1.0157062e-12, cumulative = -8.8281747e-08
DICPCG:  Solving for p, Initial residual = 4.3533887e-05, Final residual = 2.0807605e-06, No Iterations 22
DICPCG:  Solving for p, Initial residual = 1.8356274e-05, Final residual = 9.608339e-07, No Iterations 133
DICPCG:  Solving for p, Initial residual = 1.7504059e-05, Final residual = 9.5928409e-07, No Iterations 4
time step continuity errors : sum local = 1.8328952e-12, global = -1.2880993e-15, cumulative = -8.8281748e-08
ExecutionTime = 156.46 s  ClockTime = 160 s

Time = 19.7

Courant Number mean: 0.00055511211 max: 0.10217881
smoothSolver:  Solving for Ux, Initial residual = 0.0002755468, Final residual = 1.0362067e-08, No Iterations 1
smoothSolver:  Solving for Uy, Initial residual = 0.00039382602, Final residual = 1.3766298e-08, No Iterations 1
smoothSolver:  Solving for Uz, Initial residual = 0.00037459134, Final residual = 1.3306065e-08, No Iterations 1
DICPCG:  Solving for p, Initial residual = 0.0018228129, Final residual = 6.0144319e-05, No Iterations 3
DICPCG:  Solving for p, Initial residual = 0.00030453229, Final residual = 1.5218913e-05, No Iterations 14
DICPCG:  Solving for p, Initial residual = 0.00011126585, Final residual = 5.2012198e-06, No Iterations 17
time step continuity errors : sum local = 9.9230675e-12, global = 1.4310415e-12, cumulative = -8.8280317e-08
DICPCG:  Solving for p, Initial residual = 4.4430171e-05, Final residual = 2.0714398e-06, No Iterations 11
DICPCG:  Solving for p, Initial residual = 1.61464e-05, Final residual = 9.2792563e-07, No Iterations 140
DICPCG:  Solving for p, Initial residual = 1.9829171e-05, Final residual = 8.6357902e-07, No Iterations 5
time step continuity errors : sum local = 1.6474908e-12, global = -1.6727744e-14, cumulative = -8.8280334e-08
ExecutionTime = 157.15 s  ClockTime = 160 s

Time = 19.8

Courant Number mean: 0.00055514127 max: 0.1021649
smoothSolver:  Solving for Ux, Initial residual = 0.00027497207, Final residual = 1.0343176e-08, No Iterations 1
smoothSolver:  Solving for Uy, Initial residual = 0.00039290806, Final residual = 1.3754597e-08, No Iterations 1
smoothSolver:  Solving for Uz, Initial residual = 0.00037379556, Final residual = 1.3255872e-08, No Iterations 1
DICPCG:  Solving for p, Initial residual = 0.0018308719, Final residual = 8.8983851e-05, No Iterations 2
DICPCG:  Solving for p, Initial residual = 0.0003011767, Final residual = 1.437967e-05, No Iterations 16
DICPCG:  Solving for p, Initial residual = 0.0001224987, Final residual = 5.4666157e-06, No Iterations 16
time step continuity errors : sum local = 1.0414276e-11, global = 1.5309217e-12, cumulative = -8.8278803e-08
DICPCG:  Solving for p, Initial residual = 4.5887399e-05, Final residual = 2.2074758e-06, No Iterations 11
DICPCG:  Solving for p, Initial residual = 1.7655197e-05, Final residual = 9.9791639e-07, No Iterations 128
DICPCG:  Solving for p, Initial residual = 1.8704039e-05, Final residual = 8.3887494e-07, No Iterations 5
time step continuity errors : sum local = 1.5980517e-12, global = -1.0947496e-14, cumulative = -8.8278814e-08
ExecutionTime = 157.86 s  ClockTime = 161 s

Time = 19.9

Courant Number mean: 0.00055517057 max: 0.10215057
smoothSolver:  Solving for Ux, Initial residual = 0.00027449655, Final residual = 1.0306438e-08, No Iterations 1
smoothSolver:  Solving for Uy, Initial residual = 0.00039222939, Final residual = 1.3797141e-08, No Iterations 1
smoothSolver:  Solving for Uz, Initial residual = 0.00037314818, Final residual = 1.3209133e-08, No Iterations 1
DICPCG:  Solving for p, Initial residual = 0.0018838242, Final residual = 5.723284e-05, No Iterations 3
DICPCG:  Solving for p, Initial residual = 0.0003307755, Final residual = 1.5847203e-05, No Iterations 16
DICPCG:  Solving for p, Initial residual = 0.0001277332, Final residual = 6.3004158e-06, No Iterations 17
time step continuity errors : sum local = 1.1986199e-11, global = 1.2612181e-12, cumulative = -8.8277553e-08
DICPCG:  Solving for p, Initial residual = 5.1295979e-05, Final residual = 2.4676713e-06, No Iterations 14
DICPCG:  Solving for p, Initial residual = 1.9359125e-05, Final residual = 9.8633834e-07, No Iterations 138
DICPCG:  Solving for p, Initial residual = 2.1968985e-05, Final residual = 9.1227942e-07, No Iterations 5
time step continuity errors : sum local = 1.7354905e-12, global = -9.3888708e-15, cumulative = -8.8277562e-08
ExecutionTime = 158.61 s  ClockTime = 162 s

Time = 20

Courant Number mean: 0.00055519984 max: 0.10213528
smoothSolver:  Solving for Ux, Initial residual = 0.00027387025, Final residual = 1.02753e-08, No Iterations 1
smoothSolver:  Solving for Uy, Initial residual = 0.00039125404, Final residual = 1.3799649e-08, No Iterations 1
smoothSolver:  Solving for Uz, Initial residual = 0.00037229757, Final residual = 1.3147176e-08, No Iterations 1
DICPCG:  Solving for p, Initial residual = 0.0018629865, Final residual = 6.3995216e-05, No Iterations 3
DICPCG:  Solving for p, Initial residual = 0.00033549673, Final residual = 1.5274006e-05, No Iterations 15
DICPCG:  Solving for p, Initial residual = 0.00012344988, Final residual = 5.8946551e-06, No Iterations 16
time step continuity errors : sum local = 1.119864e-11, global = 1.2996917e-12, cumulative = -8.8276262e-08
DICPCG:  Solving for p, Initial residual = 4.9732865e-05, Final residual = 2.3289581e-06, No Iterations 12
DICPCG:  Solving for p, Initial residual = 1.8762663e-05, Final residual = 9.7656604e-07, No Iterations 128
DICPCG:  Solving for p, Initial residual = 2.1043251e-05, Final residual = 8.8020115e-07, No Iterations 5
time step continuity errors : sum local = 1.6721481e-12, global = -1.0017517e-14, cumulative = -8.8276272e-08
ExecutionTime = 159.56 s  ClockTime = 163 s

End

Finalising parallel run
